Program Version,EnergyPlus, Version 22.1.0-ed759b17ee, YMD=2022.05.26 15:16
! This file shows details about the branches, nodes, and other
! elements of the flow connections.
! This file is intended for use in "debugging" potential problems
! that may also be detected by the program, but may be more easily
! identified by "eye".
! This file is also intended to support software which draws a
! schematic diagram of the HVAC system.
! ===============================================================
! #Nodes,<Number of Unique Nodes>
 #Nodes,347
! <Node>,<NodeNumber>,<Node Name>,<Node Fluid Type>,<# Times Node Referenced After Definition>
 Node,1,BASEMENT DIRECT AIR INLET NODE NAME,Air,8
 Node,2,CORE_BOTTOM VAV BOX OUTLET NODE,Air,4
 Node,3,CORE_MID VAV BOX OUTLET NODE,Air,4
 Node,4,CORE_TOP VAV BOX OUTLET NODE,Air,4
 Node,5,PERIMETER_BOT_ZN_3 VAV BOX OUTLET NODE,Air,4
 Node,6,PERIMETER_BOT_ZN_2 VAV BOX OUTLET NODE,Air,4
 Node,7,PERIMETER_BOT_ZN_1 VAV BOX OUTLET NODE,Air,4
 Node,8,PERIMETER_BOT_ZN_4 VAV BOX OUTLET NODE,Air,4
 Node,9,PERIMETER_MID_ZN_3 VAV BOX OUTLET NODE,Air,4
 Node,10,PERIMETER_MID_ZN_2 VAV BOX OUTLET NODE,Air,4
 Node,11,PERIMETER_MID_ZN_1 VAV BOX OUTLET NODE,Air,4
 Node,12,PERIMETER_MID_ZN_4 VAV BOX OUTLET NODE,Air,4
 Node,13,PERIMETER_TOP_ZN_3 VAV BOX OUTLET NODE,Air,4
 Node,14,PERIMETER_TOP_ZN_2 VAV BOX OUTLET NODE,Air,4
 Node,15,PERIMETER_TOP_ZN_1 VAV BOX OUTLET NODE,Air,4
 Node,16,PERIMETER_TOP_ZN_4 VAV BOX OUTLET NODE,Air,4
 Node,17,CAV_BAS_OAINLET NODE,Air,3
 Node,18,VAV_BOT WITH REHEAT_OAINLET NODE,Air,3
 Node,19,VAV_MID WITH REHEAT_OAINLET NODE,Air,3
 Node,20,VAV_TOP WITH REHEAT_OAINLET NODE,Air,3
 Node,21,DATACENTER BASEMENT SUPPLY INLET,Air,5
 Node,22,DATACENTER BOT SUPPLY INLET,Air,5
 Node,23,DATACENTER MID SUPPLY INLET,Air,5
 Node,24,DATACENTER TOP SUPPLY INLET,Air,5
 Node,25,CAV_BAS SUPPLY EQUIPMENT INLET NODE,Air,3
 Node,26,CAV_BAS_OA-CAV_COOLCNODE,Air,5
 Node,27,CAV_BAS_COOLC-CAV_HEATCNODE,Air,5
 Node,28,CAV_BAS_HEATC-CAV_FANNODE,Air,8
 Node,29,CAV_BAS SUPPLY EQUIPMENT OUTLET NODE,Air,7
 Node,30,VAV_BOT WITH REHEAT SUPPLY EQUIPMENT INLET NODE,Air,3
 Node,31,VAV_BOT WITH REHEAT_OA-VAV WITH REHEAT_COOLCNODE,Air,5
 Node,32,VAV_BOT WITH REHEAT_COOLC-VAV WITH REHEAT_HEATCNODE,Air,5
 Node,33,VAV_BOT WITH REHEAT_HEATC-VAV WITH REHEAT FANNODE,Air,8
 Node,34,VAV_BOT WITH REHEAT SUPPLY EQUIPMENT OUTLET NODE,Air,9
 Node,35,VAV_MID WITH REHEAT SUPPLY EQUIPMENT INLET NODE,Air,3
 Node,36,VAV_MID WITH REHEAT_OA-VAV WITH REHEAT_COOLCNODE,Air,5
 Node,37,VAV_MID WITH REHEAT_COOLC-VAV WITH REHEAT_HEATCNODE,Air,5
 Node,38,VAV_MID WITH REHEAT_HEATC-VAV WITH REHEAT FANNODE,Air,8
 Node,39,VAV_MID WITH REHEAT SUPPLY EQUIPMENT OUTLET NODE,Air,9
 Node,40,VAV_TOP WITH REHEAT SUPPLY EQUIPMENT INLET NODE,Air,3
 Node,41,VAV_TOP WITH REHEAT_OA-VAV WITH REHEAT_COOLCNODE,Air,5
 Node,42,VAV_TOP WITH REHEAT_COOLC-VAV WITH REHEAT_HEATCNODE,Air,5
 Node,43,VAV_TOP WITH REHEAT_HEATC-VAV WITH REHEAT FANNODE,Air,8
 Node,44,VAV_TOP WITH REHEAT SUPPLY EQUIPMENT OUTLET NODE,Air,9
 Node,45,SHWSYS1 SUPPLY INLET NODE,Water,2
 Node,46,SHWSYS1 PUMP-SHWSYS1 WATER HEATERNODEVIACONNECTOR,Water,1
 Node,47,SHWSYS1 PUMP-SHWSYS1 WATER HEATERNODE,Water,1
 Node,48,SHWSYS1 SUPPLY EQUIPMENT OUTLET NODE,Water,1
 Node,49,SHWSYS1 SUPPLY EQUIP BYPASS INLET NODE,Water,1
 Node,50,SHWSYS1 SUPPLY EQUIP BYPASS OUTLET NODE,Water,1
 Node,51,SHWSYS1 SUPPLY MIXER-SHWSYS1 SUPPLY OUTLET PIPE,Water,1
 Node,52,SHWSYS1 SUPPLY OUTLET NODE,Water,4
 Node,53,SHWSYS1 DEMAND INLET NODE,Water,2
 Node,54,SHWSYS1 DEMAND INLET PIPE-SHWSYS1 DEMAND MIXER,Water,1
 Node,55,CORE_BOTTOM SUB CAT WATER INLET NODE,Water,1
 Node,56,CORE_BOTTOM SUB CAT WATER OUTLET NODE,Water,1
 Node,57,CORE_MID SUB CAT WATER INLET NODE,Water,1
 Node,58,CORE_MID SUB CAT WATER OUTLET NODE,Water,1
 Node,59,CORE_TOP SUB CAT WATER INLET NODE,Water,1
 Node,60,CORE_TOP SUB CAT WATER OUTLET NODE,Water,1
 Node,61,SHWSYS1 DEMAND BYPASS PIPE INLET NODE,Water,1
 Node,62,SHWSYS1 DEMAND BYPASS PIPE OUTLET NODE,Water,1
 Node,63,SHWSYS1 DEMAND MIXER-SHWSYS1 DEMAND OUTLET PIPE,Water,1
 Node,64,SHWSYS1 DEMAND OUTLET NODE,Water,2
 Node,65,HEATSYS1 SUPPLY INLET NODE,Water,2
 Node,66,HEATSYS1 PUMP-HEATSYS1 BOILERNODEVIACONNECTOR,Water,1
 Node,67,HEATSYS1 PUMP-HEATSYS1 BOILERNODE,Water,1
 Node,68,HEATSYS1 SUPPLY EQUIPMENT OUTLET NODE,Water,2
 Node,69,HEATSYS1 SUPPLY EQUIP BYPASS INLET NODE,Water,1
 Node,70,HEATSYS1 SUPPLY EQUIP BYPASS OUTLET NODE,Water,1
 Node,71,HEATSYS1 SUPPLY MIXER-HEATSYS1 SUPPLY OUTLET PIPE,Water,1
 Node,72,HEATSYS1 SUPPLY OUTLET NODE,Water,4
 Node,73,HEATSYS1 DEMAND INLET NODE,Water,2
 Node,74,HEATSYS1 DEMAND INLET PIPE-HEATSYS1 DEMAND MIXER,Water,1
 Node,75,CORE_BOTTOM VAV BOX REHEAT COILDEMAND INLET NODE,Water,1
 Node,76,CORE_BOTTOM VAV BOX REHEAT COILDEMAND OUTLET NODE,Water,1
 Node,77,CORE_MID VAV BOX REHEAT COILDEMAND INLET NODE,Water,1
 Node,78,CORE_MID VAV BOX REHEAT COILDEMAND OUTLET NODE,Water,1
 Node,79,CORE_TOP VAV BOX REHEAT COILDEMAND INLET NODE,Water,1
 Node,80,CORE_TOP VAV BOX REHEAT COILDEMAND OUTLET NODE,Water,1
 Node,81,PERIMETER_BOT_ZN_3 VAV BOX REHEAT COILDEMAND INLET NODE,Water,1
 Node,82,PERIMETER_BOT_ZN_3 VAV BOX REHEAT COILDEMAND OUTLET NODE,Water,1
 Node,83,PERIMETER_BOT_ZN_2 VAV BOX REHEAT COILDEMAND INLET NODE,Water,1
 Node,84,PERIMETER_BOT_ZN_2 VAV BOX REHEAT COILDEMAND OUTLET NODE,Water,1
 Node,85,PERIMETER_BOT_ZN_1 VAV BOX REHEAT COILDEMAND INLET NODE,Water,1
 Node,86,PERIMETER_BOT_ZN_1 VAV BOX REHEAT COILDEMAND OUTLET NODE,Water,1
 Node,87,PERIMETER_BOT_ZN_4 VAV BOX REHEAT COILDEMAND INLET NODE,Water,1
 Node,88,PERIMETER_BOT_ZN_4 VAV BOX REHEAT COILDEMAND OUTLET NODE,Water,1
 Node,89,PERIMETER_MID_ZN_3 VAV BOX REHEAT COILDEMAND INLET NODE,Water,1
 Node,90,PERIMETER_MID_ZN_3 VAV BOX REHEAT COILDEMAND OUTLET NODE,Water,1
 Node,91,PERIMETER_MID_ZN_2 VAV BOX REHEAT COILDEMAND INLET NODE,Water,1
 Node,92,PERIMETER_MID_ZN_2 VAV BOX REHEAT COILDEMAND OUTLET NODE,Water,1
 Node,93,PERIMETER_MID_ZN_1 VAV BOX REHEAT COILDEMAND INLET NODE,Water,1
 Node,94,PERIMETER_MID_ZN_1 VAV BOX REHEAT COILDEMAND OUTLET NODE,Water,1
 Node,95,PERIMETER_MID_ZN_4 VAV BOX REHEAT COILDEMAND INLET NODE,Water,1
 Node,96,PERIMETER_MID_ZN_4 VAV BOX REHEAT COILDEMAND OUTLET NODE,Water,1
 Node,97,PERIMETER_TOP_ZN_3 VAV BOX REHEAT COILDEMAND INLET NODE,Water,1
 Node,98,PERIMETER_TOP_ZN_3 VAV BOX REHEAT COILDEMAND OUTLET NODE,Water,1
 Node,99,PERIMETER_TOP_ZN_2 VAV BOX REHEAT COILDEMAND INLET NODE,Water,1
 Node,100,PERIMETER_TOP_ZN_2 VAV BOX REHEAT COILDEMAND OUTLET NODE,Water,1
 Node,101,PERIMETER_TOP_ZN_1 VAV BOX REHEAT COILDEMAND INLET NODE,Water,1
 Node,102,PERIMETER_TOP_ZN_1 VAV BOX REHEAT COILDEMAND OUTLET NODE,Water,1
 Node,103,PERIMETER_TOP_ZN_4 VAV BOX REHEAT COILDEMAND INLET NODE,Water,1
 Node,104,PERIMETER_TOP_ZN_4 VAV BOX REHEAT COILDEMAND OUTLET NODE,Water,1
 Node,105,VAV_BOT WITH REHEAT_HEATCDEMAND INLET NODE,Water,2
 Node,106,VAV_BOT WITH REHEAT_HEATCDEMAND OUTLET NODE,Water,1
 Node,107,VAV_MID WITH REHEAT_HEATCDEMAND INLET NODE,Water,2
 Node,108,VAV_MID WITH REHEAT_HEATCDEMAND OUTLET NODE,Water,1
 Node,109,VAV_TOP WITH REHEAT_HEATCDEMAND INLET NODE,Water,2
 Node,110,VAV_TOP WITH REHEAT_HEATCDEMAND OUTLET NODE,Water,1
 Node,111,CAV_BAS_HEATCDEMAND INLET NODE,Water,2
 Node,112,CAV_BAS_HEATCDEMAND OUTLET NODE,Water,1
 Node,113,DATACENTER_EXTRAWATERHEATCDEMAND INLET NODE,Water,2
 Node,114,DATACENTER_EXTRAWATERHEATCDEMAND OUTLET NODE,Water,1
 Node,115,HEATSYS1 DEMAND BYPASS PIPE INLET NODE,Water,1
 Node,116,HEATSYS1 DEMAND BYPASS PIPE OUTLET NODE,Water,1
 Node,117,HEATSYS1 DEMAND MIXER-HEATSYS1 DEMAND OUTLET PIPE,Water,1
 Node,118,HEATSYS1 DEMAND OUTLET NODE,Water,2
 Node,119,COOLSYS1 SUPPLY INLET NODE,Water,2
 Node,120,COOLSYS1 PUMP-COOLSYS1 CHILLERNODEVIACONNECTOR,Water,1
 Node,121,COOLSYS1 CHILLER1 PUMP INLET NODE,Water,1
 Node,122,COOLSYS1 PUMP-COOLSYS1 CHILLER1NODE,Water,3
 Node,123,COOLSYS1 SUPPLY EQUIPMENT OUTLET NODE 1,Water,1
 Node,124,COOLSYS1 CHILLER2 PUMP INLET NODE,Water,1
 Node,125,COOLSYS1 PUMP-COOLSYS1 CHILLER2NODE,Water,3
 Node,126,COOLSYS1 SUPPLY EQUIPMENT OUTLET NODE 2,Water,1
 Node,127,COOLSYS1 SUPPLY EQUIP BYPASS INLET NODE,Water,1
 Node,128,COOLSYS1 SUPPLY EQUIP BYPASS OUTLET NODE,Water,1
 Node,129,COOLSYS1 SUPPLY MIXER-COOLSYS1 SUPPLY OUTLET PIPE,Water,1
 Node,130,COOLSYS1 SUPPLY OUTLET NODE,Water,4
 Node,131,COOLSYS1 DEMAND INLET NODE,Water,4
 Node,132,COOLSYS1 PUMP SECONDARY-COOLSYS1 DEMAND MIXER,Water,1
 Node,133,VAV_BOT WITH REHEAT_COOLCDEMAND INLET NODE,Water,2
 Node,134,VAV_BOT WITH REHEAT_COOLCDEMAND OUTLET NODE,Water,1
 Node,135,VAV_MID WITH REHEAT_COOLCDEMAND INLET NODE,Water,2
 Node,136,VAV_MID WITH REHEAT_COOLCDEMAND OUTLET NODE,Water,1
 Node,137,VAV_TOP WITH REHEAT_COOLCDEMAND INLET NODE,Water,2
 Node,138,VAV_TOP WITH REHEAT_COOLCDEMAND OUTLET NODE,Water,1
 Node,139,CAV_BAS_COOLCDEMAND INLET NODE,Water,2
 Node,140,CAV_BAS_COOLCDEMAND OUTLET NODE,Water,1
 Node,141,COOLSYS1 DEMAND MIXER-COOLSYS1 DEMAND OUTLET PIPE,Water,1
 Node,142,COOLSYS1 DEMAND OUTLET NODE,Water,2
 Node,143,TOWERWATERSYS SUPPLY INLET NODE,Water,2
 Node,144,TOWERWATERSYS PUMP-TOWERWATERSYS COOLTOWERNODEVIACONNECTOR,Water,1
 Node,145,TOWERWATERSYS PUMP-TOWERWATERSYS COOLTOWER1NODE,Water,1
 Node,146,TOWERWATERSYS SUPPLY EQUIPMENT OUTLET NODE 1,Water,1
 Node,147,TOWERWATERSYS PUMP-TOWERWATERSYS COOLTOWER2NODE,Water,1
 Node,148,TOWERWATERSYS SUPPLY EQUIPMENT OUTLET NODE 2,Water,1
 Node,149,TOWERWATERSYS SUPPLY EQUIP BYPASS INLET NODE,Water,1
 Node,150,TOWERWATERSYS SUPPLY EQUIP BYPASS OUTLET NODE,Water,1
 Node,151,TOWERWATERSYS SUPPLY MIXER-TOWERWATERSYS SUPPLY OUTLET PIPE,Water,1
 Node,152,TOWERWATERSYS SUPPLY OUTLET NODE,Water,4
 Node,153,TOWERWATERSYS DEMAND INLET NODE,Water,2
 Node,154,TOWERWATERSYS DEMAND INLET PIPE-TOWERWATERSYS DEMAND MIXER,Water,1
 Node,155,COOLSYS1 CHILLER1 WATER INLET NODE,Water,1
 Node,156,COOLSYS1 CHILLER1 WATER OUTLET NODE,Water,1
 Node,157,COOLSYS1 CHILLER2 WATER INLET NODE,Water,1
 Node,158,COOLSYS1 CHILLER2 WATER OUTLET NODE,Water,1
 Node,159,TOWERWATERSYS DEMAND BYPASS PIPE INLET NODE,Water,1
 Node,160,TOWERWATERSYS DEMAND BYPASS PIPE OUTLET NODE,Water,1
 Node,161,TOWERWATERSYS DEMAND MIXER-TOWERWATERSYS DEMAND OUTLET PIPE,Water,1
 Node,162,TOWERWATERSYS DEMAND OUTLET NODE,Water,2
 Node,163,COOLSYS1 EXCHANCHER SUPPLY INLET NODE,Water,1
 Node,164,COOLSYS1 EXCHANCHER SUPPLY OUTLET NODE,Water,1
 Node,165,COOLSYS1 EXCHANCHER DEMAND INLET NODE,Water,1
 Node,166,COOLSYS1 EXCHANCHER DEMAND OUTLET NODE,Water,1
 Node,167,COOLSYS1 SUPPLY BYPASS INLET NODE,Water,1
 Node,168,COOLSYS1 SUPPLY BYPASS OUTLET NODE,Water,1
 Node,169,COOLSYS1 DEMAND BYPASS INLET NODE,Water,1
 Node,170,COOLSYS1 DEMAND BYPASS OUTLET NODE,Water,1
 Node,171,COOLSYS1 SUPPLY DEMAND SIDE INLET PIPE INLET NODE,Water,2
 Node,172,COOLSYS1 SUPPLY DEMAND SIDE INLET PIPE OUTLET NODE,Water,1
 Node,173,COOLSYS1 SUPPLY DEMAND SIDE OUTLET PIPE INLET NODE,Water,1
 Node,174,COOLSYS1 SUPPLY DEMAND SIDE OUTLET PIPE OUTLET NODE,Water,2
 Node,175,COOLSYS1 DEMAND SUPPLY SIDE INLET PIPE INLET NODE,Water,2
 Node,176,COOLSYS1 DEMAND SUPPLY SIDE INLET PIPE OUTLET NODE,Water,1
 Node,177,COOLSYS1 DEMAND SUPPLY SIDE OUTLET PIPE INLET NODE,Water,1
 Node,178,COOLSYS1 DEMAND SUPPLY SIDE OUTLET PIPE OUTLET NODE,Water,2
 Node,179,AIRLOOP DATACENTER BASEMENT RETURN AIR INLET,Air,3
 Node,180,DATACENTER BASEMENT MIXED AIR OUTLET,Air,8
 Node,181,AIRLOOP DATACENTER BASEMENT HUMIDIFIER INLET,Air,4
 Node,182,DATACENTER_HUMIDIFIER-DATACENTER_EXTRAELECHEATCNODE,Air,4
 Node,183,DATACENTER_EXTRAELECHEATC-DATACENTER_EXTRAWATERHEATCNODE,Air,5
 Node,184,AIRLOOP DATACENTER BASEMENT SUPPLY AIR OUTLET,Air,5
 Node,185,AIRLOOP DATACENTER BOT RETURN AIR INLET,Air,3
 Node,186,DATACENTER BOT MIXED AIR OUTLET,Air,7
 Node,187,AIRLOOP DATACENTER BOT SUPPLY AIR OUTLET,Air,4
 Node,188,AIRLOOP DATACENTER MID RETURN AIR INLET,Air,3
 Node,189,DATACENTER MID MIXED AIR OUTLET,Air,7
 Node,190,AIRLOOP DATACENTER MID SUPPLY AIR OUTLET,Air,4
 Node,191,AIRLOOP DATACENTER TOP RETURN AIR INLET,Air,3
 Node,192,DATACENTER TOP MIXED AIR OUTLET,Air,7
 Node,193,AIRLOOP DATACENTER TOP SUPPLY AIR OUTLET,Air,4
 Node,194,PLANT SUPPLY INLET NODE,Water,2
 Node,195,PLANT PUMP OUTLET NODE,Water,1
 Node,196,CENTRAL TOWER INLET NODE,Water,2
 Node,197,CENTRAL TOWER OUTLET NODE,Water,1
 Node,198,DUMMY BOILER INLET NODE,Water,2
 Node,199,DUMMY BOILER OUTLET NODE,Water,1
 Node,200,PLANT SUPPLY BYPASS INLET NODE,Water,1
 Node,201,PLANT SUPPLY BYPASS OUTLET NODE,Water,1
 Node,202,PLANT SUPPLY EXIT PIPE INLET NODE,Water,1
 Node,203,PLANT SUPPLY OUTLET NODE,Water,6
 Node,204,PLANT DEMAND INLET NODE,Water,2
 Node,205,PLANT DEMAND ENTRANCE PIPE OUTLET NODE,Water,1
 Node,206,COND DEMAND BYPASS INLET NODE,Water,1
 Node,207,COND DEMAND BYPASS OUTLET NODE,Water,1
 Node,208,PLANT DEMAND EXIT PIPE INLET NODE,Water,1
 Node,209,PLANT DEMAND OUTLET NODE,Water,2
 Node,210,AIRLOOP DATACENTER BASEMENT WATER TO AIR HEAT PUMP SOURCE SIDE1 INLET NODE,Water,1
 Node,211,AIRLOOP DATACENTER BASEMENT WATER TO AIR HEAT PUMP SOURCE SIDE1 OUTLET NODE,Water,1
 Node,212,AIRLOOP DATACENTER BASEMENT WATER TO AIR HEAT PUMP SOURCE SIDE2 INLET NODE,Water,1
 Node,213,AIRLOOP DATACENTER BASEMENT WATER TO AIR HEAT PUMP SOURCE SIDE2 OUTLET NODE,Water,1
 Node,214,AIRLOOP DATACENTER BOT WATER TO AIR HEAT PUMP SOURCE SIDE1 INLET NODE,Water,1
 Node,215,AIRLOOP DATACENTER BOT WATER TO AIR HEAT PUMP SOURCE SIDE1 OUTLET NODE,Water,1
 Node,216,AIRLOOP DATACENTER MID WATER TO AIR HEAT PUMP SOURCE SIDE1 INLET NODE,Water,1
 Node,217,AIRLOOP DATACENTER MID WATER TO AIR HEAT PUMP SOURCE SIDE1 OUTLET NODE,Water,1
 Node,218,AIRLOOP DATACENTER TOP WATER TO AIR HEAT PUMP SOURCE SIDE1 INLET NODE,Water,1
 Node,219,AIRLOOP DATACENTER TOP WATER TO AIR HEAT PUMP SOURCE SIDE1 OUTLET NODE,Water,1
 Node,220,AIRLOOP DATACENTER BOT WATER TO AIR HEAT PUMP SOURCE SIDE2 INLET NODE,Water,1
 Node,221,AIRLOOP DATACENTER BOT WATER TO AIR HEAT PUMP SOURCE SIDE2 OUTLET NODE,Water,1
 Node,222,AIRLOOP DATACENTER MID WATER TO AIR HEAT PUMP SOURCE SIDE2 INLET NODE,Water,1
 Node,223,AIRLOOP DATACENTER MID WATER TO AIR HEAT PUMP SOURCE SIDE2 OUTLET NODE,Water,1
 Node,224,AIRLOOP DATACENTER TOP WATER TO AIR HEAT PUMP SOURCE SIDE2 INLET NODE,Water,1
 Node,225,AIRLOOP DATACENTER TOP WATER TO AIR HEAT PUMP SOURCE SIDE2 OUTLET NODE,Water,1
 Node,226,BASEMENT AIR NODE,Air,2
 Node,227,BASEMENT RETURN AIR NODE,Air,1
 Node,228,CORE_BOTTOM AIR NODE,Air,0
 Node,229,CORE_BOTTOM RETURN AIR NODE,Air,1
 Node,230,CORE_MID AIR NODE,Air,0
 Node,231,CORE_MID RETURN AIR NODE,Air,1
 Node,232,CORE_TOP AIR NODE,Air,0
 Node,233,CORE_TOP RETURN AIR NODE,Air,1
 Node,234,PERIMETER_BOT_ZN_3 AIR NODE,Air,0
 Node,235,PERIMETER_BOT_ZN_3 RETURN AIR NODE,Air,1
 Node,236,PERIMETER_BOT_ZN_2 AIR NODE,Air,0
 Node,237,PERIMETER_BOT_ZN_2 RETURN AIR NODE,Air,1
 Node,238,PERIMETER_BOT_ZN_1 AIR NODE,Air,0
 Node,239,PERIMETER_BOT_ZN_1 RETURN AIR NODE,Air,1
 Node,240,PERIMETER_BOT_ZN_4 AIR NODE,Air,0
 Node,241,PERIMETER_BOT_ZN_4 RETURN AIR NODE,Air,1
 Node,242,PERIMETER_MID_ZN_3 AIR NODE,Air,0
 Node,243,PERIMETER_MID_ZN_3 RETURN AIR NODE,Air,1
 Node,244,PERIMETER_MID_ZN_2 AIR NODE,Air,0
 Node,245,PERIMETER_MID_ZN_2 RETURN AIR NODE,Air,1
 Node,246,PERIMETER_MID_ZN_1 AIR NODE,Air,0
 Node,247,PERIMETER_MID_ZN_1 RETURN AIR NODE,Air,1
 Node,248,PERIMETER_MID_ZN_4 AIR NODE,Air,0
 Node,249,PERIMETER_MID_ZN_4 RETURN AIR NODE,Air,1
 Node,250,PERIMETER_TOP_ZN_3 AIR NODE,Air,0
 Node,251,PERIMETER_TOP_ZN_3 RETURN AIR NODE,Air,1
 Node,252,PERIMETER_TOP_ZN_2 AIR NODE,Air,0
 Node,253,PERIMETER_TOP_ZN_2 RETURN AIR NODE,Air,1
 Node,254,PERIMETER_TOP_ZN_1 AIR NODE,Air,0
 Node,255,PERIMETER_TOP_ZN_1 RETURN AIR NODE,Air,1
 Node,256,PERIMETER_TOP_ZN_4 AIR NODE,Air,0
 Node,257,PERIMETER_TOP_ZN_4 RETURN AIR NODE,Air,1
 Node,258,DATACENTER BASEMENT ZONE AIR NODE,Air,3
 Node,259,DATACENTER BASEMENT RETURN OUTLET,Air,1
 Node,260,DATACENTER BOT ZONE AIR NODE,Air,2
 Node,261,DATACENTER BOT RETURN OUTLET,Air,1
 Node,262,DATACENTER MID ZONE AIR NODE,Air,2
 Node,263,DATACENTER MID RETURN OUTLET,Air,1
 Node,264,DATACENTER TOP ZONE AIR NODE,Air,2
 Node,265,DATACENTER TOP RETURN OUTLET,Air,1
 Node,266,CAV_BAS ZONE EQUIPMENT INLET NODE,Air,2
 Node,267,VAV_BOT WITH REHEAT ZONE EQUIPMENT INLET NODE,Air,2
 Node,268,VAV_MID WITH REHEAT ZONE EQUIPMENT INLET NODE,Air,2
 Node,269,VAV_TOP WITH REHEAT ZONE EQUIPMENT INLET NODE,Air,2
 Node,270,ZONESPLITTER DATACENTER BASEMENT SUPPLY AIR INLET,Air,2
 Node,271,ZONESPLITTER DATACENTER BOT SUPPLY AIR INLET,Air,2
 Node,272,ZONESPLITTER DATACENTER MID SUPPLY AIR INLET,Air,2
 Node,273,ZONESPLITTER DATACENTER TOP SUPPLY AIR INLET,Air,2
 Node,274,CAV_BAS ZONE EQUIPMENT OUTLET NODE,Air,2
 Node,275,VAV_BOT WITH REHEAT ZONE EQUIPMENT OUTLET NODE,Air,2
 Node,276,VAV_MID WITH REHEAT ZONE EQUIPMENT OUTLET NODE,Air,2
 Node,277,VAV_TOP WITH REHEAT ZONE EQUIPMENT OUTLET NODE,Air,2
 Node,278,ZONEMIXER DATACENTER BASEMENT RETURN AIR OUTLET,Air,2
 Node,279,ZONEMIXER DATACENTER BOT RETURN AIR OUTLET,Air,2
 Node,280,ZONEMIXER DATACENTER MID RETURN AIR OUTLET,Air,2
 Node,281,ZONEMIXER DATACENTER TOP RETURN AIR OUTLET,Air,2
 Node,282,DATACENTER BASEMENT OUTSIDE AIR INLET,Air,2
 Node,283,DATACENTER BOT OUTSIDE AIR INLET,Air,2
 Node,284,DATACENTER MID OUTSIDE AIR INLET,Air,2
 Node,285,DATACENTER TOP OUTSIDE AIR INLET,Air,2
 Node,286,COMMON OSA INLET NODE,Air,4
 Node,287,COOLING COIL AIR OUTLET NODE AIRLOOP DATACENTER BASEMENT,Air,3
 Node,288,COOLING COIL AIR OUTLET NODE AIRLOOP DATACENTER BOT,Air,3
 Node,289,COOLING COIL AIR OUTLET NODE AIRLOOP DATACENTER MID,Air,3
 Node,290,COOLING COIL AIR OUTLET NODE AIRLOOP DATACENTER TOP,Air,3
 Node,291,AIRLOOP DATACENTER BASEMENT SUPPLY FAN OUTLET,Air,3
 Node,292,AIRLOOP DATACENTER BOT SUPPLY FAN OUTLET,Air,2
 Node,293,AIRLOOP DATACENTER MID SUPPLY FAN OUTLET,Air,2
 Node,294,AIRLOOP DATACENTER TOP SUPPLY FAN OUTLET,Air,2
 Node,295,BASEMENT DIRECT AIR INLET NODE NAME ATINLET,Air,1
 Node,296,CORE_BOTTOM VAV BOX INLET NODE,Air,1
 Node,297,PERIMETER_BOT_ZN_3 VAV BOX INLET NODE,Air,1
 Node,298,PERIMETER_BOT_ZN_2 VAV BOX INLET NODE,Air,1
 Node,299,PERIMETER_BOT_ZN_1 VAV BOX INLET NODE,Air,1
 Node,300,PERIMETER_BOT_ZN_4 VAV BOX INLET NODE,Air,1
 Node,301,CORE_MID VAV BOX INLET NODE,Air,1
 Node,302,PERIMETER_MID_ZN_3 VAV BOX INLET NODE,Air,1
 Node,303,PERIMETER_MID_ZN_2 VAV BOX INLET NODE,Air,1
 Node,304,PERIMETER_MID_ZN_1 VAV BOX INLET NODE,Air,1
 Node,305,PERIMETER_MID_ZN_4 VAV BOX INLET NODE,Air,1
 Node,306,CORE_TOP VAV BOX INLET NODE,Air,1
 Node,307,PERIMETER_TOP_ZN_3 VAV BOX INLET NODE,Air,1
 Node,308,PERIMETER_TOP_ZN_2 VAV BOX INLET NODE,Air,1
 Node,309,PERIMETER_TOP_ZN_1 VAV BOX INLET NODE,Air,1
 Node,310,PERIMETER_TOP_ZN_4 VAV BOX INLET NODE,Air,1
 Node,311,DATACENTER BASEMENT SUPPLY INLET ATINLET,Air,1
 Node,312,DATACENTER BOT SUPPLY INLET ATINLET,Air,1
 Node,313,DATACENTER MID SUPPLY INLET ATINLET,Air,1
 Node,314,DATACENTER TOP SUPPLY INLET ATINLET,Air,1
 Node,315,CORE_BOTTOM VAV BOX DAMPER NODE,Air,1
 Node,316,CORE_MID VAV BOX DAMPER NODE,Air,1
 Node,317,CORE_TOP VAV BOX DAMPER NODE,Air,1
 Node,318,PERIMETER_BOT_ZN_3 VAV BOX DAMPER NODE,Air,1
 Node,319,PERIMETER_BOT_ZN_2 VAV BOX DAMPER NODE,Air,1
 Node,320,PERIMETER_BOT_ZN_1 VAV BOX DAMPER NODE,Air,1
 Node,321,PERIMETER_BOT_ZN_4 VAV BOX DAMPER NODE,Air,1
 Node,322,PERIMETER_MID_ZN_3 VAV BOX DAMPER NODE,Air,1
 Node,323,PERIMETER_MID_ZN_2 VAV BOX DAMPER NODE,Air,1
 Node,324,PERIMETER_MID_ZN_1 VAV BOX DAMPER NODE,Air,1
 Node,325,PERIMETER_MID_ZN_4 VAV BOX DAMPER NODE,Air,1
 Node,326,PERIMETER_TOP_ZN_3 VAV BOX DAMPER NODE,Air,1
 Node,327,PERIMETER_TOP_ZN_2 VAV BOX DAMPER NODE,Air,1
 Node,328,PERIMETER_TOP_ZN_1 VAV BOX DAMPER NODE,Air,1
 Node,329,PERIMETER_TOP_ZN_4 VAV BOX DAMPER NODE,Air,1
 Node,330,GROUNDFLOOR_PLENUM OUTLET NODE,Air,1
 Node,331,MIDFLOOR_PLENUM OUTLET NODE,Air,1
 Node,332,TOPFLOOR_PLENUM OUTLET NODE,Air,1
 Node,333,GROUNDFLOOR_PLENUM NODE,Air,0
 Node,334,MIDFLOOR_PLENUM NODE,Air,0
 Node,335,TOPFLOOR_PLENUM NODE,Air,0
 Node,336,CAV_BAS_OARELIEF NODE,Air,1
 Node,337,VAV_BOT WITH REHEAT_OARELIEF NODE,Air,1
 Node,338,VAV_MID WITH REHEAT_OARELIEF NODE,Air,1
 Node,339,VAV_TOP WITH REHEAT_OARELIEF NODE,Air,1
 Node,340,DATACENTER BASEMENT RELIEF AIR OUTLET,Air,1
 Node,341,DATACENTER BOT RELIEF AIR OUTLET,Air,1
 Node,342,DATACENTER MID RELIEF AIR OUTLET,Air,1
 Node,343,DATACENTER TOP RELIEF AIR OUTLET,Air,1
 Node,344,HEATING COIL AIR OUTLET NODE AIRLOOP DATACENTER BASEMENT,Air,1
 Node,345,HEATING COIL AIR OUTLET NODE AIRLOOP DATACENTER BOT,Air,1
 Node,346,HEATING COIL AIR OUTLET NODE AIRLOOP DATACENTER MID,Air,1
 Node,347,HEATING COIL AIR OUTLET NODE AIRLOOP DATACENTER TOP,Air,1
! ===============================================================
! Suspicious nodes have 0 references.  It is normal for some nodes, however.
! Listing nodes with 0 references (culled from previous list):
! <Suspicious Node>,<NodeNumber>,<Node Name>,<Node Fluid Type>,<# Times Node Referenced After Definition>
 Suspicious Node,228,CORE_BOTTOM AIR NODE,Air,0
 Suspicious Node,230,CORE_MID AIR NODE,Air,0
 Suspicious Node,232,CORE_TOP AIR NODE,Air,0
 Suspicious Node,234,PERIMETER_BOT_ZN_3 AIR NODE,Air,0
 Suspicious Node,236,PERIMETER_BOT_ZN_2 AIR NODE,Air,0
 Suspicious Node,238,PERIMETER_BOT_ZN_1 AIR NODE,Air,0
 Suspicious Node,240,PERIMETER_BOT_ZN_4 AIR NODE,Air,0
 Suspicious Node,242,PERIMETER_MID_ZN_3 AIR NODE,Air,0
 Suspicious Node,244,PERIMETER_MID_ZN_2 AIR NODE,Air,0
 Suspicious Node,246,PERIMETER_MID_ZN_1 AIR NODE,Air,0
 Suspicious Node,248,PERIMETER_MID_ZN_4 AIR NODE,Air,0
 Suspicious Node,250,PERIMETER_TOP_ZN_3 AIR NODE,Air,0
 Suspicious Node,252,PERIMETER_TOP_ZN_2 AIR NODE,Air,0
 Suspicious Node,254,PERIMETER_TOP_ZN_1 AIR NODE,Air,0
 Suspicious Node,256,PERIMETER_TOP_ZN_4 AIR NODE,Air,0
 Suspicious Node,333,GROUNDFLOOR_PLENUM NODE,Air,0
 Suspicious Node,334,MIDFLOOR_PLENUM NODE,Air,0
 Suspicious Node,335,TOPFLOOR_PLENUM NODE,Air,0
! ===============================================================
! <#Branch Lists>,<Number of Branch Lists>
 #Branch Lists,20
! <Branch List>,<Branch List Count>,<Branch List Name>,<Loop Name>,<Loop Type>,<Number of Branches>
! <Branch>,<Branch Count>,<Branch Name>,<Loop Name>,<Loop Type>,<Branch Inlet Node Name>,<Branch Outlet Node Name>
 Branch List,1,CAV_BAS AIR LOOP BRANCHES,CAV_BAS,Air,1
   Branch,1,CAV_BAS AIR LOOP MAIN BRANCH,CAV_BAS,Air,CAV_BAS SUPPLY EQUIPMENT INLET NODE,CAV_BAS SUPPLY EQUIPMENT OUTLET NODE
 Branch List,2,VAV_BOT WITH REHEAT AIR LOOP BRANCHES,VAV_BOT WITH REHEAT,Air,1
   Branch,1,VAV_BOT WITH REHEAT AIR LOOP MAIN BRANCH,VAV_BOT WITH REHEAT,Air,VAV_BOT WITH REHEAT SUPPLY EQUIPMENT INLET NODE,VAV_BOT WITH REHEAT SUPPLY EQUIPMENT OUTLET NODE
 Branch List,3,VAV_MID WITH REHEAT AIR LOOP BRANCHES,VAV_MID WITH REHEAT,Air,1
   Branch,1,VAV_MID WITH REHEAT AIR LOOP MAIN BRANCH,VAV_MID WITH REHEAT,Air,VAV_MID WITH REHEAT SUPPLY EQUIPMENT INLET NODE,VAV_MID WITH REHEAT SUPPLY EQUIPMENT OUTLET NODE
 Branch List,4,VAV_TOP WITH REHEAT AIR LOOP BRANCHES,VAV_TOP WITH REHEAT,Air,1
   Branch,1,VAV_TOP WITH REHEAT AIR LOOP MAIN BRANCH,VAV_TOP WITH REHEAT,Air,VAV_TOP WITH REHEAT SUPPLY EQUIPMENT INLET NODE,VAV_TOP WITH REHEAT SUPPLY EQUIPMENT OUTLET NODE
 Branch List,5,SHWSYS1 SUPPLY BRANCHES,SHWSYS1,Plant Supply,4
   Branch,1,SHWSYS1 SUPPLY INLET BRANCH,SHWSYS1,Plant Supply,SHWSYS1 SUPPLY INLET NODE,SHWSYS1 PUMP-SHWSYS1 WATER HEATERNODEVIACONNECTOR
   Branch,2,SHWSYS1 SUPPLY EQUIPMENT BRANCH,SHWSYS1,Plant Supply,SHWSYS1 PUMP-SHWSYS1 WATER HEATERNODE,SHWSYS1 SUPPLY EQUIPMENT OUTLET NODE
   Branch,3,SHWSYS1 SUPPLY EQUIPMENT BYPASS BRANCH,SHWSYS1,Plant Supply,SHWSYS1 SUPPLY EQUIP BYPASS INLET NODE,SHWSYS1 SUPPLY EQUIP BYPASS OUTLET NODE
   Branch,4,SHWSYS1 SUPPLY OUTLET BRANCH,SHWSYS1,Plant Supply,SHWSYS1 SUPPLY MIXER-SHWSYS1 SUPPLY OUTLET PIPE,SHWSYS1 SUPPLY OUTLET NODE
 Branch List,6,SHWSYS1 DEMAND BRANCHES,SHWSYS1,Plant Demand,6
   Branch,1,SHWSYS1 DEMAND INLET BRANCH,SHWSYS1,Plant Demand,SHWSYS1 DEMAND INLET NODE,SHWSYS1 DEMAND INLET PIPE-SHWSYS1 DEMAND MIXER
   Branch,2,SHWSYS1 DEMAND LOAD BRANCH 1,SHWSYS1,Plant Demand,CORE_BOTTOM SUB CAT WATER INLET NODE,CORE_BOTTOM SUB CAT WATER OUTLET NODE
   Branch,3,SHWSYS1 DEMAND LOAD BRANCH 2,SHWSYS1,Plant Demand,CORE_MID SUB CAT WATER INLET NODE,CORE_MID SUB CAT WATER OUTLET NODE
   Branch,4,SHWSYS1 DEMAND LOAD BRANCH 3,SHWSYS1,Plant Demand,CORE_TOP SUB CAT WATER INLET NODE,CORE_TOP SUB CAT WATER OUTLET NODE
   Branch,5,SHWSYS1 DEMAND BYPASS BRANCH,SHWSYS1,Plant Demand,SHWSYS1 DEMAND BYPASS PIPE INLET NODE,SHWSYS1 DEMAND BYPASS PIPE OUTLET NODE
   Branch,6,SHWSYS1 DEMAND OUTLET BRANCH,SHWSYS1,Plant Demand,SHWSYS1 DEMAND MIXER-SHWSYS1 DEMAND OUTLET PIPE,SHWSYS1 DEMAND OUTLET NODE
 Branch List,7,HEATSYS1 SUPPLY BRANCHES,HEATSYS1,Plant Supply,4
   Branch,1,HEATSYS1 SUPPLY INLET BRANCH,HEATSYS1,Plant Supply,HEATSYS1 SUPPLY INLET NODE,HEATSYS1 PUMP-HEATSYS1 BOILERNODEVIACONNECTOR
   Branch,2,HEATSYS1 SUPPLY EQUIPMENT BRANCH,HEATSYS1,Plant Supply,HEATSYS1 PUMP-HEATSYS1 BOILERNODE,HEATSYS1 SUPPLY EQUIPMENT OUTLET NODE
   Branch,3,HEATSYS1 SUPPLY EQUIPMENT BYPASS BRANCH,HEATSYS1,Plant Supply,HEATSYS1 SUPPLY EQUIP BYPASS INLET NODE,HEATSYS1 SUPPLY EQUIP BYPASS OUTLET NODE
   Branch,4,HEATSYS1 SUPPLY OUTLET BRANCH,HEATSYS1,Plant Supply,HEATSYS1 SUPPLY MIXER-HEATSYS1 SUPPLY OUTLET PIPE,HEATSYS1 SUPPLY OUTLET NODE
 Branch List,8,HEATSYS1 DEMAND BRANCHES,HEATSYS1,Plant Demand,23
   Branch,1,HEATSYS1 DEMAND INLET BRANCH,HEATSYS1,Plant Demand,HEATSYS1 DEMAND INLET NODE,HEATSYS1 DEMAND INLET PIPE-HEATSYS1 DEMAND MIXER
   Branch,2,HEATSYS1 DEMAND LOAD BRANCH 1,HEATSYS1,Plant Demand,CORE_BOTTOM VAV BOX REHEAT COILDEMAND INLET NODE,CORE_BOTTOM VAV BOX REHEAT COILDEMAND OUTLET NODE
   Branch,3,HEATSYS1 DEMAND LOAD BRANCH 2,HEATSYS1,Plant Demand,CORE_MID VAV BOX REHEAT COILDEMAND INLET NODE,CORE_MID VAV BOX REHEAT COILDEMAND OUTLET NODE
   Branch,4,HEATSYS1 DEMAND LOAD BRANCH 3,HEATSYS1,Plant Demand,CORE_TOP VAV BOX REHEAT COILDEMAND INLET NODE,CORE_TOP VAV BOX REHEAT COILDEMAND OUTLET NODE
   Branch,5,HEATSYS1 DEMAND LOAD BRANCH 4,HEATSYS1,Plant Demand,PERIMETER_BOT_ZN_3 VAV BOX REHEAT COILDEMAND INLET NODE,PERIMETER_BOT_ZN_3 VAV BOX REHEAT COILDEMAND OUTLET NODE
   Branch,6,HEATSYS1 DEMAND LOAD BRANCH 5,HEATSYS1,Plant Demand,PERIMETER_BOT_ZN_2 VAV BOX REHEAT COILDEMAND INLET NODE,PERIMETER_BOT_ZN_2 VAV BOX REHEAT COILDEMAND OUTLET NODE
   Branch,7,HEATSYS1 DEMAND LOAD BRANCH 6,HEATSYS1,Plant Demand,PERIMETER_BOT_ZN_1 VAV BOX REHEAT COILDEMAND INLET NODE,PERIMETER_BOT_ZN_1 VAV BOX REHEAT COILDEMAND OUTLET NODE
   Branch,8,HEATSYS1 DEMAND LOAD BRANCH 7,HEATSYS1,Plant Demand,PERIMETER_BOT_ZN_4 VAV BOX REHEAT COILDEMAND INLET NODE,PERIMETER_BOT_ZN_4 VAV BOX REHEAT COILDEMAND OUTLET NODE
   Branch,9,HEATSYS1 DEMAND LOAD BRANCH 8,HEATSYS1,Plant Demand,PERIMETER_MID_ZN_3 VAV BOX REHEAT COILDEMAND INLET NODE,PERIMETER_MID_ZN_3 VAV BOX REHEAT COILDEMAND OUTLET NODE
   Branch,10,HEATSYS1 DEMAND LOAD BRANCH 9,HEATSYS1,Plant Demand,PERIMETER_MID_ZN_2 VAV BOX REHEAT COILDEMAND INLET NODE,PERIMETER_MID_ZN_2 VAV BOX REHEAT COILDEMAND OUTLET NODE
   Branch,11,HEATSYS1 DEMAND LOAD BRANCH 10,HEATSYS1,Plant Demand,PERIMETER_MID_ZN_1 VAV BOX REHEAT COILDEMAND INLET NODE,PERIMETER_MID_ZN_1 VAV BOX REHEAT COILDEMAND OUTLET NODE
   Branch,12,HEATSYS1 DEMAND LOAD BRANCH 11,HEATSYS1,Plant Demand,PERIMETER_MID_ZN_4 VAV BOX REHEAT COILDEMAND INLET NODE,PERIMETER_MID_ZN_4 VAV BOX REHEAT COILDEMAND OUTLET NODE
   Branch,13,HEATSYS1 DEMAND LOAD BRANCH 12,HEATSYS1,Plant Demand,PERIMETER_TOP_ZN_3 VAV BOX REHEAT COILDEMAND INLET NODE,PERIMETER_TOP_ZN_3 VAV BOX REHEAT COILDEMAND OUTLET NODE
   Branch,14,HEATSYS1 DEMAND LOAD BRANCH 13,HEATSYS1,Plant Demand,PERIMETER_TOP_ZN_2 VAV BOX REHEAT COILDEMAND INLET NODE,PERIMETER_TOP_ZN_2 VAV BOX REHEAT COILDEMAND OUTLET NODE
   Branch,15,HEATSYS1 DEMAND LOAD BRANCH 14,HEATSYS1,Plant Demand,PERIMETER_TOP_ZN_1 VAV BOX REHEAT COILDEMAND INLET NODE,PERIMETER_TOP_ZN_1 VAV BOX REHEAT COILDEMAND OUTLET NODE
   Branch,16,HEATSYS1 DEMAND LOAD BRANCH 15,HEATSYS1,Plant Demand,PERIMETER_TOP_ZN_4 VAV BOX REHEAT COILDEMAND INLET NODE,PERIMETER_TOP_ZN_4 VAV BOX REHEAT COILDEMAND OUTLET NODE
   Branch,17,HEATSYS1 DEMAND LOAD BRANCH 17,HEATSYS1,Plant Demand,VAV_BOT WITH REHEAT_HEATCDEMAND INLET NODE,VAV_BOT WITH REHEAT_HEATCDEMAND OUTLET NODE
   Branch,18,HEATSYS1 DEMAND LOAD BRANCH 18,HEATSYS1,Plant Demand,VAV_MID WITH REHEAT_HEATCDEMAND INLET NODE,VAV_MID WITH REHEAT_HEATCDEMAND OUTLET NODE
   Branch,19,HEATSYS1 DEMAND LOAD BRANCH 19,HEATSYS1,Plant Demand,VAV_TOP WITH REHEAT_HEATCDEMAND INLET NODE,VAV_TOP WITH REHEAT_HEATCDEMAND OUTLET NODE
   Branch,20,HEATSYS1 DEMAND LOAD BRANCH 20,HEATSYS1,Plant Demand,CAV_BAS_HEATCDEMAND INLET NODE,CAV_BAS_HEATCDEMAND OUTLET NODE
   Branch,21,HEATSYS1 DEMAND LOAD BRANCH 21,HEATSYS1,Plant Demand,DATACENTER_EXTRAWATERHEATCDEMAND INLET NODE,DATACENTER_EXTRAWATERHEATCDEMAND OUTLET NODE
   Branch,22,HEATSYS1 DEMAND BYPASS BRANCH,HEATSYS1,Plant Demand,HEATSYS1 DEMAND BYPASS PIPE INLET NODE,HEATSYS1 DEMAND BYPASS PIPE OUTLET NODE
   Branch,23,HEATSYS1 DEMAND OUTLET BRANCH,HEATSYS1,Plant Demand,HEATSYS1 DEMAND MIXER-HEATSYS1 DEMAND OUTLET PIPE,HEATSYS1 DEMAND OUTLET NODE
 Branch List,9,COOLSYS1 SUPPLY SUPPLY SIDE BRANCHES,COOLSYS1_SUPPLY,Plant Supply,5
   Branch,1,COOLSYS1 SUPPLY INLET BRANCH,COOLSYS1_SUPPLY,Plant Supply,COOLSYS1 SUPPLY INLET NODE,COOLSYS1 PUMP-COOLSYS1 CHILLERNODEVIACONNECTOR
   Branch,2,COOLSYS1 SUPPLY EQUIPMENT BRANCH 1,COOLSYS1_SUPPLY,Plant Supply,COOLSYS1 CHILLER1 PUMP INLET NODE,COOLSYS1 SUPPLY EQUIPMENT OUTLET NODE 1
   Branch,3,COOLSYS1 SUPPLY EQUIPMENT BRANCH 2,COOLSYS1_SUPPLY,Plant Supply,COOLSYS1 CHILLER2 PUMP INLET NODE,COOLSYS1 SUPPLY EQUIPMENT OUTLET NODE 2
   Branch,4,COOLSYS1 SUPPLY EQUIPMENT BYPASS BRANCH,COOLSYS1_SUPPLY,Plant Supply,COOLSYS1 SUPPLY EQUIP BYPASS INLET NODE,COOLSYS1 SUPPLY EQUIP BYPASS OUTLET NODE
   Branch,5,COOLSYS1 SUPPLY OUTLET BRANCH,COOLSYS1_SUPPLY,Plant Supply,COOLSYS1 SUPPLY MIXER-COOLSYS1 SUPPLY OUTLET PIPE,COOLSYS1 SUPPLY OUTLET NODE
 Branch List,10,COOLSYS1 DEMAND DEMAND SIDE BRANCHES,COOLSYS1_DEMAND,Plant Demand,6
   Branch,1,COOLSYS1 DEMAND INLET BRANCH,COOLSYS1_DEMAND,Plant Demand,COOLSYS1 DEMAND INLET NODE,COOLSYS1 PUMP SECONDARY-COOLSYS1 DEMAND MIXER
   Branch,2,COOLSYS1 DEMAND LOAD BRANCH 1,COOLSYS1_DEMAND,Plant Demand,VAV_BOT WITH REHEAT_COOLCDEMAND INLET NODE,VAV_BOT WITH REHEAT_COOLCDEMAND OUTLET NODE
   Branch,3,COOLSYS1 DEMAND LOAD BRANCH 2,COOLSYS1_DEMAND,Plant Demand,VAV_MID WITH REHEAT_COOLCDEMAND INLET NODE,VAV_MID WITH REHEAT_COOLCDEMAND OUTLET NODE
   Branch,4,COOLSYS1 DEMAND LOAD BRANCH 3,COOLSYS1_DEMAND,Plant Demand,VAV_TOP WITH REHEAT_COOLCDEMAND INLET NODE,VAV_TOP WITH REHEAT_COOLCDEMAND OUTLET NODE
   Branch,5,COOLSYS1 DEMAND LOAD BRANCH 4,COOLSYS1_DEMAND,Plant Demand,CAV_BAS_COOLCDEMAND INLET NODE,CAV_BAS_COOLCDEMAND OUTLET NODE
   Branch,6,COOLSYS1 DEMAND OUTLET BRANCH,COOLSYS1_DEMAND,Plant Demand,COOLSYS1 DEMAND MIXER-COOLSYS1 DEMAND OUTLET PIPE,COOLSYS1 DEMAND OUTLET NODE
 Branch List,11,TOWERWATERSYS SUPPLY BRANCHES,TOWERWATERSYS,Condenser Supply,5
   Branch,1,TOWERWATERSYS SUPPLY INLET BRANCH,TOWERWATERSYS,Condenser Supply,TOWERWATERSYS SUPPLY INLET NODE,TOWERWATERSYS PUMP-TOWERWATERSYS COOLTOWERNODEVIACONNECTOR
   Branch,2,TOWERWATERSYS SUPPLY EQUIPMENT BRANCH 1,TOWERWATERSYS,Condenser Supply,TOWERWATERSYS PUMP-TOWERWATERSYS COOLTOWER1NODE,TOWERWATERSYS SUPPLY EQUIPMENT OUTLET NODE 1
   Branch,3,TOWERWATERSYS SUPPLY EQUIPMENT BRANCH 2,TOWERWATERSYS,Condenser Supply,TOWERWATERSYS PUMP-TOWERWATERSYS COOLTOWER2NODE,TOWERWATERSYS SUPPLY EQUIPMENT OUTLET NODE 2
   Branch,4,TOWERWATERSYS SUPPLY EQUIPMENT BYPASS BRANCH,TOWERWATERSYS,Condenser Supply,TOWERWATERSYS SUPPLY EQUIP BYPASS INLET NODE,TOWERWATERSYS SUPPLY EQUIP BYPASS OUTLET NODE
   Branch,5,TOWERWATERSYS SUPPLY OUTLET BRANCH,TOWERWATERSYS,Condenser Supply,TOWERWATERSYS SUPPLY MIXER-TOWERWATERSYS SUPPLY OUTLET PIPE,TOWERWATERSYS SUPPLY OUTLET NODE
 Branch List,12,TOWERWATERSYS DEMAND BRANCHES,TOWERWATERSYS,Condenser Demand,5
   Branch,1,TOWERWATERSYS DEMAND INLET BRANCH,TOWERWATERSYS,Condenser Demand,TOWERWATERSYS DEMAND INLET NODE,TOWERWATERSYS DEMAND INLET PIPE-TOWERWATERSYS DEMAND MIXER
   Branch,2,TOWERWATERSYS DEMAND LOAD BRANCH 1,TOWERWATERSYS,Condenser Demand,COOLSYS1 CHILLER1 WATER INLET NODE,COOLSYS1 CHILLER1 WATER OUTLET NODE
   Branch,3,TOWERWATERSYS DEMAND LOAD BRANCH 2,TOWERWATERSYS,Condenser Demand,COOLSYS1 CHILLER2 WATER INLET NODE,COOLSYS1 CHILLER2 WATER OUTLET NODE
   Branch,4,TOWERWATERSYS DEMAND BYPASS BRANCH,TOWERWATERSYS,Condenser Demand,TOWERWATERSYS DEMAND BYPASS PIPE INLET NODE,TOWERWATERSYS DEMAND BYPASS PIPE OUTLET NODE
   Branch,5,TOWERWATERSYS DEMAND OUTLET BRANCH,TOWERWATERSYS,Condenser Demand,TOWERWATERSYS DEMAND MIXER-TOWERWATERSYS DEMAND OUTLET PIPE,TOWERWATERSYS DEMAND OUTLET NODE
 Branch List,13,AIRLOOP DATACENTER BASEMENT BRANCHES,AIRLOOP DATACENTER BASEMENT,Air,1
   Branch,1,AIRLOOP DATACENTER BASEMENT MAIN BRANCH,AIRLOOP DATACENTER BASEMENT,Air,AIRLOOP DATACENTER BASEMENT RETURN AIR INLET,AIRLOOP DATACENTER BASEMENT SUPPLY AIR OUTLET
 Branch List,14,AIRLOOP DATACENTER BOT BRANCHES,AIRLOOP DATACENTER BOT,Air,1
   Branch,1,AIRLOOP DATACENTER BOT MAIN BRANCH,AIRLOOP DATACENTER BOT,Air,AIRLOOP DATACENTER BOT RETURN AIR INLET,AIRLOOP DATACENTER BOT SUPPLY AIR OUTLET
 Branch List,15,AIRLOOP DATACENTER MID BRANCHES,AIRLOOP DATACENTER MID,Air,1
   Branch,1,AIRLOOP DATACENTER MID MAIN BRANCH,AIRLOOP DATACENTER MID,Air,AIRLOOP DATACENTER MID RETURN AIR INLET,AIRLOOP DATACENTER MID SUPPLY AIR OUTLET
 Branch List,16,AIRLOOP DATACENTER TOP BRANCHES,AIRLOOP DATACENTER TOP,Air,1
   Branch,1,AIRLOOP DATACENTER TOP MAIN BRANCH,AIRLOOP DATACENTER TOP,Air,AIRLOOP DATACENTER TOP RETURN AIR INLET,AIRLOOP DATACENTER TOP SUPPLY AIR OUTLET
 Branch List,17,PLANT SUPPLY SIDE BRANCHES,SINGLE WATER PLANT LOOP,Plant Supply,5
   Branch,1,PLANT SUPPLY INLET BRANCH,SINGLE WATER PLANT LOOP,Plant Supply,PLANT SUPPLY INLET NODE,PLANT PUMP OUTLET NODE
   Branch,2,PLANT SUPPLY TOWER BRANCH,SINGLE WATER PLANT LOOP,Plant Supply,CENTRAL TOWER INLET NODE,CENTRAL TOWER OUTLET NODE
   Branch,3,DUMMY BOILER BRANCH,SINGLE WATER PLANT LOOP,Plant Supply,DUMMY BOILER INLET NODE,DUMMY BOILER OUTLET NODE
   Branch,4,PLANT SUPPLY BYPASS BRANCH,SINGLE WATER PLANT LOOP,Plant Supply,PLANT SUPPLY BYPASS INLET NODE,PLANT SUPPLY BYPASS OUTLET NODE
   Branch,5,PLANT SUPPLY OUTLET BRANCH,SINGLE WATER PLANT LOOP,Plant Supply,PLANT SUPPLY EXIT PIPE INLET NODE,PLANT SUPPLY OUTLET NODE
 Branch List,18,PLANT DEMAND SIDE BRANCHES,SINGLE WATER PLANT LOOP,Plant Demand,11
   Branch,1,PLANT DEMAND INLET BRANCH,SINGLE WATER PLANT LOOP,Plant Demand,PLANT DEMAND INLET NODE,PLANT DEMAND ENTRANCE PIPE OUTLET NODE
   Branch,2,WLHP COOLING PLANT BRANCH AIRLOOP DATACENTER BASEMENT,SINGLE WATER PLANT LOOP,Plant Demand,AIRLOOP DATACENTER BASEMENT WATER TO AIR HEAT PUMP SOURCE SIDE1 INLET NODE,AIRLOOP DATACENTER BASEMENT WATER TO AIR HEAT PUMP SOURCE SIDE1 OUTLET NODE
   Branch,3,WLHP HEATING PLANT BRANCH AIRLOOP DATACENTER BASEMENT,SINGLE WATER PLANT LOOP,Plant Demand,AIRLOOP DATACENTER BASEMENT WATER TO AIR HEAT PUMP SOURCE SIDE2 INLET NODE,AIRLOOP DATACENTER BASEMENT WATER TO AIR HEAT PUMP SOURCE SIDE2 OUTLET NODE
   Branch,4,WLHP COOLING PLANT BRANCH AIRLOOP DATACENTER BOT,SINGLE WATER PLANT LOOP,Plant Demand,AIRLOOP DATACENTER BOT WATER TO AIR HEAT PUMP SOURCE SIDE1 INLET NODE,AIRLOOP DATACENTER BOT WATER TO AIR HEAT PUMP SOURCE SIDE1 OUTLET NODE
   Branch,5,WLHP HEATING PLANT BRANCH AIRLOOP DATACENTER BOT,SINGLE WATER PLANT LOOP,Plant Demand,AIRLOOP DATACENTER BOT WATER TO AIR HEAT PUMP SOURCE SIDE2 INLET NODE,AIRLOOP DATACENTER BOT WATER TO AIR HEAT PUMP SOURCE SIDE2 OUTLET NODE
   Branch,6,WLHP COOLING PLANT BRANCH AIRLOOP DATACENTER MID,SINGLE WATER PLANT LOOP,Plant Demand,AIRLOOP DATACENTER MID WATER TO AIR HEAT PUMP SOURCE SIDE1 INLET NODE,AIRLOOP DATACENTER MID WATER TO AIR HEAT PUMP SOURCE SIDE1 OUTLET NODE
   Branch,7,WLHP HEATING PLANT BRANCH AIRLOOP DATACENTER MID,SINGLE WATER PLANT LOOP,Plant Demand,AIRLOOP DATACENTER MID WATER TO AIR HEAT PUMP SOURCE SIDE2 INLET NODE,AIRLOOP DATACENTER MID WATER TO AIR HEAT PUMP SOURCE SIDE2 OUTLET NODE
   Branch,8,WLHP COOLING PLANT BRANCH AIRLOOP DATACENTER TOP,SINGLE WATER PLANT LOOP,Plant Demand,AIRLOOP DATACENTER TOP WATER TO AIR HEAT PUMP SOURCE SIDE1 INLET NODE,AIRLOOP DATACENTER TOP WATER TO AIR HEAT PUMP SOURCE SIDE1 OUTLET NODE
   Branch,9,WLHP HEATING PLANT BRANCH AIRLOOP DATACENTER TOP,SINGLE WATER PLANT LOOP,Plant Demand,AIRLOOP DATACENTER TOP WATER TO AIR HEAT PUMP SOURCE SIDE2 INLET NODE,AIRLOOP DATACENTER TOP WATER TO AIR HEAT PUMP SOURCE SIDE2 OUTLET NODE
   Branch,10,PLANT DEMAND BYPASS BRANCH,SINGLE WATER PLANT LOOP,Plant Demand,COND DEMAND BYPASS INLET NODE,COND DEMAND BYPASS OUTLET NODE
   Branch,11,PLANT DEMAND OUTLET BRANCH,SINGLE WATER PLANT LOOP,Plant Demand,PLANT DEMAND EXIT PIPE INLET NODE,PLANT DEMAND OUTLET NODE
 Branch List,19,COOLSYS1 SUPPLY DEMAND SIDE BRANCHES,COOLSYS1_SUPPLY,Plant Demand,4
   Branch,1,COOLSYS1 SUPPLY DEMAND SIDE INLET BRANCH,COOLSYS1_SUPPLY,Plant Demand,COOLSYS1 SUPPLY DEMAND SIDE INLET PIPE INLET NODE,COOLSYS1 SUPPLY DEMAND SIDE INLET PIPE OUTLET NODE
   Branch,2,COOLSYS1 HEAT EXCHANGER SUPPLY BRANCH,COOLSYS1_SUPPLY,Plant Demand,COOLSYS1 EXCHANCHER SUPPLY INLET NODE,COOLSYS1 EXCHANCHER SUPPLY OUTLET NODE
   Branch,3,COOLSYS1 SUPPLY SIDE BYPASS,COOLSYS1_SUPPLY,Plant Demand,COOLSYS1 SUPPLY BYPASS INLET NODE,COOLSYS1 SUPPLY BYPASS OUTLET NODE
   Branch,4,COOLSYS1 SUPPLY DEMAND SIDE OUTLET BRANCH,COOLSYS1_SUPPLY,Plant Demand,COOLSYS1 SUPPLY DEMAND SIDE OUTLET PIPE INLET NODE,COOLSYS1 SUPPLY DEMAND SIDE OUTLET PIPE OUTLET NODE
 Branch List,20,COOLSYS1 DEMAND SUPPLY SIDE BRANCHES,COOLSYS1_DEMAND,Plant Supply,4
   Branch,1,COOLSYS1 DEMAND SUPPLY SIDE INLET BRANCH,COOLSYS1_DEMAND,Plant Supply,COOLSYS1 DEMAND SUPPLY SIDE INLET PIPE INLET NODE,COOLSYS1 DEMAND SUPPLY SIDE INLET PIPE OUTLET NODE
   Branch,2,COOLSYS1 HEAT EXCHANGER DEMAND BRANCH,COOLSYS1_DEMAND,Plant Supply,COOLSYS1 EXCHANCHER DEMAND INLET NODE,COOLSYS1 EXCHANCHER DEMAND OUTLET NODE
   Branch,3,COOLSYS1 DEMAND SIDE BYPASS,COOLSYS1_DEMAND,Plant Supply,COOLSYS1 DEMAND BYPASS INLET NODE,COOLSYS1 DEMAND BYPASS OUTLET NODE
   Branch,4,COOLSYS1 DEMAND SUPPLY SIDE OUTLET BRANCH,COOLSYS1_DEMAND,Plant Supply,COOLSYS1 DEMAND SUPPLY SIDE OUTLET PIPE INLET NODE,COOLSYS1 DEMAND SUPPLY SIDE OUTLET PIPE OUTLET NODE
! ===============================================================
! <#Supply Air Paths>,<Number of Supply Air Paths>
 #Supply Air Paths,8
! <Supply Air Path>,<Supply Air Path Count>,<Supply Air Path Name>,<AirLoopHVAC Name>
! <#Components on Supply Air Path>,<Number of Components>
! <Supply Air Path Component>,<Component Count>,<Component Type>,<Component Name>,<AirLoopHVAC Name>
! <#Outlet Nodes on Supply Air Path Component>,<Number of Nodes>
! <Supply Air Path Component Nodes>,<Node Count>,<Component Type>,<Component Name>,<Inlet Node Name>,<Outlet Node Name>,<AirLoopHVAC Name>
 Supply Air Path,1,CAV_BAS,CAV_BAS
   #Components on Supply Air Path,1
   Supply Air Path Component,1,AIRLOOPHVAC:ZONESPLITTER,CAV_BAS SUPPLY AIR SPLITTER,CAV_BAS
     #Outlet Nodes on Supply Air Path Component,1
     Supply Air Path Component Nodes,1,AIRLOOPHVAC:ZONESPLITTER,CAV_BAS SUPPLY AIR SPLITTER,CAV_BAS ZONE EQUIPMENT INLET NODE,BASEMENT DIRECT AIR INLET NODE NAME ATINLET,CAV_BAS
! <#Nodes on Supply Air Path>,<Number of Nodes>
! <Supply Air Path Node>,<Node Type>,<Node Count>,<Node Name>,<AirLoopHVAC Name>
#Nodes on Supply Air Path,2
   Supply Air Path Node,Inlet Node,1,CAV_BAS ZONE EQUIPMENT INLET NODE,CAV_BAS
   Supply Air Path Node,Outlet Node,2,BASEMENT DIRECT AIR INLET NODE NAME ATINLET,CAV_BAS
 Supply Air Path,2,VAV_BOT WITH REHEAT,VAV_BOT WITH REHEAT
   #Components on Supply Air Path,1
   Supply Air Path Component,1,AIRLOOPHVAC:ZONESPLITTER,VAV_BOT WITH REHEAT SUPPLY AIR SPLITTER,VAV_BOT WITH REHEAT
     #Outlet Nodes on Supply Air Path Component,5
     Supply Air Path Component Nodes,1,AIRLOOPHVAC:ZONESPLITTER,VAV_BOT WITH REHEAT SUPPLY AIR SPLITTER,VAV_BOT WITH REHEAT ZONE EQUIPMENT INLET NODE,CORE_BOTTOM VAV BOX INLET NODE,VAV_BOT WITH REHEAT
     Supply Air Path Component Nodes,2,AIRLOOPHVAC:ZONESPLITTER,VAV_BOT WITH REHEAT SUPPLY AIR SPLITTER,VAV_BOT WITH REHEAT ZONE EQUIPMENT INLET NODE,PERIMETER_BOT_ZN_3 VAV BOX INLET NODE,VAV_BOT WITH REHEAT
     Supply Air Path Component Nodes,3,AIRLOOPHVAC:ZONESPLITTER,VAV_BOT WITH REHEAT SUPPLY AIR SPLITTER,VAV_BOT WITH REHEAT ZONE EQUIPMENT INLET NODE,PERIMETER_BOT_ZN_2 VAV BOX INLET NODE,VAV_BOT WITH REHEAT
     Supply Air Path Component Nodes,4,AIRLOOPHVAC:ZONESPLITTER,VAV_BOT WITH REHEAT SUPPLY AIR SPLITTER,VAV_BOT WITH REHEAT ZONE EQUIPMENT INLET NODE,PERIMETER_BOT_ZN_1 VAV BOX INLET NODE,VAV_BOT WITH REHEAT
     Supply Air Path Component Nodes,5,AIRLOOPHVAC:ZONESPLITTER,VAV_BOT WITH REHEAT SUPPLY AIR SPLITTER,VAV_BOT WITH REHEAT ZONE EQUIPMENT INLET NODE,PERIMETER_BOT_ZN_4 VAV BOX INLET NODE,VAV_BOT WITH REHEAT
! <#Nodes on Supply Air Path>,<Number of Nodes>
! <Supply Air Path Node>,<Node Type>,<Node Count>,<Node Name>,<AirLoopHVAC Name>
#Nodes on Supply Air Path,6
   Supply Air Path Node,Inlet Node,1,VAV_BOT WITH REHEAT ZONE EQUIPMENT INLET NODE,VAV_BOT WITH REHEAT
   Supply Air Path Node,Outlet Node,2,CORE_BOTTOM VAV BOX INLET NODE,VAV_BOT WITH REHEAT
   Supply Air Path Node,Outlet Node,3,PERIMETER_BOT_ZN_3 VAV BOX INLET NODE,VAV_BOT WITH REHEAT
   Supply Air Path Node,Outlet Node,4,PERIMETER_BOT_ZN_2 VAV BOX INLET NODE,VAV_BOT WITH REHEAT
   Supply Air Path Node,Outlet Node,5,PERIMETER_BOT_ZN_1 VAV BOX INLET NODE,VAV_BOT WITH REHEAT
   Supply Air Path Node,Outlet Node,6,PERIMETER_BOT_ZN_4 VAV BOX INLET NODE,VAV_BOT WITH REHEAT
 Supply Air Path,3,VAV_MID WITH REHEAT,VAV_MID WITH REHEAT
   #Components on Supply Air Path,1
   Supply Air Path Component,1,AIRLOOPHVAC:ZONESPLITTER,VAV_MID WITH REHEAT SUPPLY AIR SPLITTER,VAV_MID WITH REHEAT
     #Outlet Nodes on Supply Air Path Component,5
     Supply Air Path Component Nodes,1,AIRLOOPHVAC:ZONESPLITTER,VAV_MID WITH REHEAT SUPPLY AIR SPLITTER,VAV_MID WITH REHEAT ZONE EQUIPMENT INLET NODE,CORE_MID VAV BOX INLET NODE,VAV_MID WITH REHEAT
     Supply Air Path Component Nodes,2,AIRLOOPHVAC:ZONESPLITTER,VAV_MID WITH REHEAT SUPPLY AIR SPLITTER,VAV_MID WITH REHEAT ZONE EQUIPMENT INLET NODE,PERIMETER_MID_ZN_3 VAV BOX INLET NODE,VAV_MID WITH REHEAT
     Supply Air Path Component Nodes,3,AIRLOOPHVAC:ZONESPLITTER,VAV_MID WITH REHEAT SUPPLY AIR SPLITTER,VAV_MID WITH REHEAT ZONE EQUIPMENT INLET NODE,PERIMETER_MID_ZN_2 VAV BOX INLET NODE,VAV_MID WITH REHEAT
     Supply Air Path Component Nodes,4,AIRLOOPHVAC:ZONESPLITTER,VAV_MID WITH REHEAT SUPPLY AIR SPLITTER,VAV_MID WITH REHEAT ZONE EQUIPMENT INLET NODE,PERIMETER_MID_ZN_1 VAV BOX INLET NODE,VAV_MID WITH REHEAT
     Supply Air Path Component Nodes,5,AIRLOOPHVAC:ZONESPLITTER,VAV_MID WITH REHEAT SUPPLY AIR SPLITTER,VAV_MID WITH REHEAT ZONE EQUIPMENT INLET NODE,PERIMETER_MID_ZN_4 VAV BOX INLET NODE,VAV_MID WITH REHEAT
! <#Nodes on Supply Air Path>,<Number of Nodes>
! <Supply Air Path Node>,<Node Type>,<Node Count>,<Node Name>,<AirLoopHVAC Name>
#Nodes on Supply Air Path,6
   Supply Air Path Node,Inlet Node,1,VAV_MID WITH REHEAT ZONE EQUIPMENT INLET NODE,VAV_MID WITH REHEAT
   Supply Air Path Node,Outlet Node,2,CORE_MID VAV BOX INLET NODE,VAV_MID WITH REHEAT
   Supply Air Path Node,Outlet Node,3,PERIMETER_MID_ZN_3 VAV BOX INLET NODE,VAV_MID WITH REHEAT
   Supply Air Path Node,Outlet Node,4,PERIMETER_MID_ZN_2 VAV BOX INLET NODE,VAV_MID WITH REHEAT
   Supply Air Path Node,Outlet Node,5,PERIMETER_MID_ZN_1 VAV BOX INLET NODE,VAV_MID WITH REHEAT
   Supply Air Path Node,Outlet Node,6,PERIMETER_MID_ZN_4 VAV BOX INLET NODE,VAV_MID WITH REHEAT
 Supply Air Path,4,VAV_TOP WITH REHEAT,VAV_TOP WITH REHEAT
   #Components on Supply Air Path,1
   Supply Air Path Component,1,AIRLOOPHVAC:ZONESPLITTER,VAV_TOP WITH REHEAT SUPPLY AIR SPLITTER,VAV_TOP WITH REHEAT
     #Outlet Nodes on Supply Air Path Component,5
     Supply Air Path Component Nodes,1,AIRLOOPHVAC:ZONESPLITTER,VAV_TOP WITH REHEAT SUPPLY AIR SPLITTER,VAV_TOP WITH REHEAT ZONE EQUIPMENT INLET NODE,CORE_TOP VAV BOX INLET NODE,VAV_TOP WITH REHEAT
     Supply Air Path Component Nodes,2,AIRLOOPHVAC:ZONESPLITTER,VAV_TOP WITH REHEAT SUPPLY AIR SPLITTER,VAV_TOP WITH REHEAT ZONE EQUIPMENT INLET NODE,PERIMETER_TOP_ZN_3 VAV BOX INLET NODE,VAV_TOP WITH REHEAT
     Supply Air Path Component Nodes,3,AIRLOOPHVAC:ZONESPLITTER,VAV_TOP WITH REHEAT SUPPLY AIR SPLITTER,VAV_TOP WITH REHEAT ZONE EQUIPMENT INLET NODE,PERIMETER_TOP_ZN_2 VAV BOX INLET NODE,VAV_TOP WITH REHEAT
     Supply Air Path Component Nodes,4,AIRLOOPHVAC:ZONESPLITTER,VAV_TOP WITH REHEAT SUPPLY AIR SPLITTER,VAV_TOP WITH REHEAT ZONE EQUIPMENT INLET NODE,PERIMETER_TOP_ZN_1 VAV BOX INLET NODE,VAV_TOP WITH REHEAT
     Supply Air Path Component Nodes,5,AIRLOOPHVAC:ZONESPLITTER,VAV_TOP WITH REHEAT SUPPLY AIR SPLITTER,VAV_TOP WITH REHEAT ZONE EQUIPMENT INLET NODE,PERIMETER_TOP_ZN_4 VAV BOX INLET NODE,VAV_TOP WITH REHEAT
! <#Nodes on Supply Air Path>,<Number of Nodes>
! <Supply Air Path Node>,<Node Type>,<Node Count>,<Node Name>,<AirLoopHVAC Name>
#Nodes on Supply Air Path,6
   Supply Air Path Node,Inlet Node,1,VAV_TOP WITH REHEAT ZONE EQUIPMENT INLET NODE,VAV_TOP WITH REHEAT
   Supply Air Path Node,Outlet Node,2,CORE_TOP VAV BOX INLET NODE,VAV_TOP WITH REHEAT
   Supply Air Path Node,Outlet Node,3,PERIMETER_TOP_ZN_3 VAV BOX INLET NODE,VAV_TOP WITH REHEAT
   Supply Air Path Node,Outlet Node,4,PERIMETER_TOP_ZN_2 VAV BOX INLET NODE,VAV_TOP WITH REHEAT
   Supply Air Path Node,Outlet Node,5,PERIMETER_TOP_ZN_1 VAV BOX INLET NODE,VAV_TOP WITH REHEAT
   Supply Air Path Node,Outlet Node,6,PERIMETER_TOP_ZN_4 VAV BOX INLET NODE,VAV_TOP WITH REHEAT
 Supply Air Path,5,AIRLOOP DATACENTER BASEMENT SUPPLY PATH,AIRLOOP DATACENTER BASEMENT
   #Components on Supply Air Path,1
   Supply Air Path Component,1,AIRLOOPHVAC:ZONESPLITTER,AIRLOOP DATACENTER BASEMENT ZONE SPLITTER,AIRLOOP DATACENTER BASEMENT
     #Outlet Nodes on Supply Air Path Component,1
     Supply Air Path Component Nodes,1,AIRLOOPHVAC:ZONESPLITTER,AIRLOOP DATACENTER BASEMENT ZONE SPLITTER,ZONESPLITTER DATACENTER BASEMENT SUPPLY AIR INLET,DATACENTER BASEMENT SUPPLY INLET ATINLET,AIRLOOP DATACENTER BASEMENT
! <#Nodes on Supply Air Path>,<Number of Nodes>
! <Supply Air Path Node>,<Node Type>,<Node Count>,<Node Name>,<AirLoopHVAC Name>
#Nodes on Supply Air Path,2
   Supply Air Path Node,Inlet Node,1,ZONESPLITTER DATACENTER BASEMENT SUPPLY AIR INLET,AIRLOOP DATACENTER BASEMENT
   Supply Air Path Node,Outlet Node,2,DATACENTER BASEMENT SUPPLY INLET ATINLET,AIRLOOP DATACENTER BASEMENT
 Supply Air Path,6,AIRLOOP DATACENTER BOT SUPPLY PATH,AIRLOOP DATACENTER BOT
   #Components on Supply Air Path,1
   Supply Air Path Component,1,AIRLOOPHVAC:ZONESPLITTER,AIRLOOP DATACENTER BOT ZONE SPLITTER,AIRLOOP DATACENTER BOT
     #Outlet Nodes on Supply Air Path Component,1
     Supply Air Path Component Nodes,1,AIRLOOPHVAC:ZONESPLITTER,AIRLOOP DATACENTER BOT ZONE SPLITTER,ZONESPLITTER DATACENTER BOT SUPPLY AIR INLET,DATACENTER BOT SUPPLY INLET ATINLET,AIRLOOP DATACENTER BOT
! <#Nodes on Supply Air Path>,<Number of Nodes>
! <Supply Air Path Node>,<Node Type>,<Node Count>,<Node Name>,<AirLoopHVAC Name>
#Nodes on Supply Air Path,2
   Supply Air Path Node,Inlet Node,1,ZONESPLITTER DATACENTER BOT SUPPLY AIR INLET,AIRLOOP DATACENTER BOT
   Supply Air Path Node,Outlet Node,2,DATACENTER BOT SUPPLY INLET ATINLET,AIRLOOP DATACENTER BOT
 Supply Air Path,7,AIRLOOP DATACENTER MID SUPPLY PATH,AIRLOOP DATACENTER MID
   #Components on Supply Air Path,1
   Supply Air Path Component,1,AIRLOOPHVAC:ZONESPLITTER,AIRLOOP DATACENTER MID ZONE SPLITTER,AIRLOOP DATACENTER MID
     #Outlet Nodes on Supply Air Path Component,1
     Supply Air Path Component Nodes,1,AIRLOOPHVAC:ZONESPLITTER,AIRLOOP DATACENTER MID ZONE SPLITTER,ZONESPLITTER DATACENTER MID SUPPLY AIR INLET,DATACENTER MID SUPPLY INLET ATINLET,AIRLOOP DATACENTER MID
! <#Nodes on Supply Air Path>,<Number of Nodes>
! <Supply Air Path Node>,<Node Type>,<Node Count>,<Node Name>,<AirLoopHVAC Name>
#Nodes on Supply Air Path,2
   Supply Air Path Node,Inlet Node,1,ZONESPLITTER DATACENTER MID SUPPLY AIR INLET,AIRLOOP DATACENTER MID
   Supply Air Path Node,Outlet Node,2,DATACENTER MID SUPPLY INLET ATINLET,AIRLOOP DATACENTER MID
 Supply Air Path,8,AIRLOOP DATACENTER TOP SUPPLY PATH,AIRLOOP DATACENTER TOP
   #Components on Supply Air Path,1
   Supply Air Path Component,1,AIRLOOPHVAC:ZONESPLITTER,AIRLOOP DATACENTER TOP ZONE SPLITTER,AIRLOOP DATACENTER TOP
     #Outlet Nodes on Supply Air Path Component,1
     Supply Air Path Component Nodes,1,AIRLOOPHVAC:ZONESPLITTER,AIRLOOP DATACENTER TOP ZONE SPLITTER,ZONESPLITTER DATACENTER TOP SUPPLY AIR INLET,DATACENTER TOP SUPPLY INLET ATINLET,AIRLOOP DATACENTER TOP
! <#Nodes on Supply Air Path>,<Number of Nodes>
! <Supply Air Path Node>,<Node Type>,<Node Count>,<Node Name>,<AirLoopHVAC Name>
#Nodes on Supply Air Path,2
   Supply Air Path Node,Inlet Node,1,ZONESPLITTER DATACENTER TOP SUPPLY AIR INLET,AIRLOOP DATACENTER TOP
   Supply Air Path Node,Outlet Node,2,DATACENTER TOP SUPPLY INLET ATINLET,AIRLOOP DATACENTER TOP
! ===============================================================
! <#Return Air Paths>,<Number of Return Air Paths>
 #Return Air Paths,8
! <Return Air Path>,<Return Air Path Count>,<Return Air Path Name>,<AirLoopHVAC Name>
! <#Components on Return Air Path>,<Number of Components>
! <Return Air Path Component>,<Component Count>,<Component Type>,<Component Name>,<AirLoopHVAC Name>
! <#Inlet Nodes on Return Air Path Component>,<Number of Nodes>
! <Return Air Path Component Nodes>,<Node Count>,<Component Type>,<Component Name>,<Inlet Node Name>,<Outlet Node Name>,<AirLoopHVAC Name>
 Return Air Path,1,CAV_BAS RETURN AIR PATH,CAV_BAS
   #Components on Return Air Path,1
   Return Air Path Component,1,AIRLOOPHVAC:ZONEMIXER,CAV_BAS RETURN AIR MIXER,CAV_BAS
     #Inlet Nodes on Return Air Path Component,1
     Return Air Path Component Nodes,1,AIRLOOPHVAC:ZONEMIXER,CAV_BAS RETURN AIR MIXER,BASEMENT RETURN AIR NODE,CAV_BAS ZONE EQUIPMENT OUTLET NODE,CAV_BAS
! <#Nodes on Return Air Path>,<Number of Nodes>
! <Return Air Path Node>,<Node Type>,<Node Count>,<Node Name>,<AirLoopHVAC Name>
   #Nodes on Return Air Path,2
   Return Air Path Node,Outlet Node,1,CAV_BAS ZONE EQUIPMENT OUTLET NODE,CAV_BAS
   Return Air Path Node,Inlet Node,2,BASEMENT RETURN AIR NODE,CAV_BAS
 Return Air Path,2,VAV_BOT WITH REHEAT RETURN AIR PATH,VAV_BOT WITH REHEAT
   #Components on Return Air Path,2
   Return Air Path Component,1,AIRLOOPHVAC:RETURNPLENUM,GROUNDFLOOR_RETURN_PLENUM,VAV_BOT WITH REHEAT
   Return Air Path Component,2,AIRLOOPHVAC:ZONEMIXER,VAV_BOT WITH REHEAT RETURN AIR MIXER,VAV_BOT WITH REHEAT
     #Inlet Nodes on Return Air Path Component,1
     Return Air Path Component Nodes,1,AIRLOOPHVAC:ZONEMIXER,VAV_BOT WITH REHEAT RETURN AIR MIXER,GROUNDFLOOR_PLENUM OUTLET NODE,VAV_BOT WITH REHEAT ZONE EQUIPMENT OUTLET NODE,VAV_BOT WITH REHEAT
! <#Nodes on Return Air Path>,<Number of Nodes>
! <Return Air Path Node>,<Node Type>,<Node Count>,<Node Name>,<AirLoopHVAC Name>
   #Nodes on Return Air Path,7
   Return Air Path Node,Outlet Node,1,VAV_BOT WITH REHEAT ZONE EQUIPMENT OUTLET NODE,VAV_BOT WITH REHEAT
   Return Air Path Node,Inlet Node,2,GROUNDFLOOR_PLENUM OUTLET NODE,VAV_BOT WITH REHEAT
   Return Air Path Node,Inlet Node,3,PERIMETER_BOT_ZN_1 RETURN AIR NODE,VAV_BOT WITH REHEAT
   Return Air Path Node,Inlet Node,4,PERIMETER_BOT_ZN_2 RETURN AIR NODE,VAV_BOT WITH REHEAT
   Return Air Path Node,Inlet Node,5,PERIMETER_BOT_ZN_3 RETURN AIR NODE,VAV_BOT WITH REHEAT
   Return Air Path Node,Inlet Node,6,PERIMETER_BOT_ZN_4 RETURN AIR NODE,VAV_BOT WITH REHEAT
   Return Air Path Node,Inlet Node,7,CORE_BOTTOM RETURN AIR NODE,VAV_BOT WITH REHEAT
 Return Air Path,3,VAV_MID WITH REHEAT RETURN AIR PATH,VAV_MID WITH REHEAT
   #Components on Return Air Path,2
   Return Air Path Component,1,AIRLOOPHVAC:RETURNPLENUM,MIDFLOOR_RETURN_PLENUM,VAV_MID WITH REHEAT
   Return Air Path Component,2,AIRLOOPHVAC:ZONEMIXER,VAV_MID WITH REHEAT RETURN AIR MIXER,VAV_MID WITH REHEAT
     #Inlet Nodes on Return Air Path Component,1
     Return Air Path Component Nodes,1,AIRLOOPHVAC:ZONEMIXER,VAV_MID WITH REHEAT RETURN AIR MIXER,MIDFLOOR_PLENUM OUTLET NODE,VAV_MID WITH REHEAT ZONE EQUIPMENT OUTLET NODE,VAV_MID WITH REHEAT
! <#Nodes on Return Air Path>,<Number of Nodes>
! <Return Air Path Node>,<Node Type>,<Node Count>,<Node Name>,<AirLoopHVAC Name>
   #Nodes on Return Air Path,7
   Return Air Path Node,Outlet Node,1,VAV_MID WITH REHEAT ZONE EQUIPMENT OUTLET NODE,VAV_MID WITH REHEAT
   Return Air Path Node,Inlet Node,2,MIDFLOOR_PLENUM OUTLET NODE,VAV_MID WITH REHEAT
   Return Air Path Node,Inlet Node,3,PERIMETER_MID_ZN_1 RETURN AIR NODE,VAV_MID WITH REHEAT
   Return Air Path Node,Inlet Node,4,PERIMETER_MID_ZN_2 RETURN AIR NODE,VAV_MID WITH REHEAT
   Return Air Path Node,Inlet Node,5,PERIMETER_MID_ZN_3 RETURN AIR NODE,VAV_MID WITH REHEAT
   Return Air Path Node,Inlet Node,6,PERIMETER_MID_ZN_4 RETURN AIR NODE,VAV_MID WITH REHEAT
   Return Air Path Node,Inlet Node,7,CORE_MID RETURN AIR NODE,VAV_MID WITH REHEAT
 Return Air Path,4,VAV_TOP WITH REHEAT RETURN AIR PATH,VAV_TOP WITH REHEAT
   #Components on Return Air Path,2
   Return Air Path Component,1,AIRLOOPHVAC:RETURNPLENUM,TOPFLOOR_RETURN_PLENUM,VAV_TOP WITH REHEAT
   Return Air Path Component,2,AIRLOOPHVAC:ZONEMIXER,VAV_TOP WITH REHEAT RETURN AIR MIXER,VAV_TOP WITH REHEAT
     #Inlet Nodes on Return Air Path Component,1
     Return Air Path Component Nodes,1,AIRLOOPHVAC:ZONEMIXER,VAV_TOP WITH REHEAT RETURN AIR MIXER,TOPFLOOR_PLENUM OUTLET NODE,VAV_TOP WITH REHEAT ZONE EQUIPMENT OUTLET NODE,VAV_TOP WITH REHEAT
! <#Nodes on Return Air Path>,<Number of Nodes>
! <Return Air Path Node>,<Node Type>,<Node Count>,<Node Name>,<AirLoopHVAC Name>
   #Nodes on Return Air Path,7
   Return Air Path Node,Outlet Node,1,VAV_TOP WITH REHEAT ZONE EQUIPMENT OUTLET NODE,VAV_TOP WITH REHEAT
   Return Air Path Node,Inlet Node,2,TOPFLOOR_PLENUM OUTLET NODE,VAV_TOP WITH REHEAT
   Return Air Path Node,Inlet Node,3,PERIMETER_TOP_ZN_1 RETURN AIR NODE,VAV_TOP WITH REHEAT
   Return Air Path Node,Inlet Node,4,PERIMETER_TOP_ZN_2 RETURN AIR NODE,VAV_TOP WITH REHEAT
   Return Air Path Node,Inlet Node,5,PERIMETER_TOP_ZN_3 RETURN AIR NODE,VAV_TOP WITH REHEAT
   Return Air Path Node,Inlet Node,6,PERIMETER_TOP_ZN_4 RETURN AIR NODE,VAV_TOP WITH REHEAT
   Return Air Path Node,Inlet Node,7,CORE_TOP RETURN AIR NODE,VAV_TOP WITH REHEAT
 Return Air Path,5,AIRLOOP DATACENTER BASEMENT RETURN PATH,AIRLOOP DATACENTER BASEMENT
   #Components on Return Air Path,1
   Return Air Path Component,1,AIRLOOPHVAC:ZONEMIXER,AIRLOOP DATACENTER BASEMENT ZONE MIXER,AIRLOOP DATACENTER BASEMENT
     #Inlet Nodes on Return Air Path Component,1
     Return Air Path Component Nodes,1,AIRLOOPHVAC:ZONEMIXER,AIRLOOP DATACENTER BASEMENT ZONE MIXER,DATACENTER BASEMENT RETURN OUTLET,ZONEMIXER DATACENTER BASEMENT RETURN AIR OUTLET,AIRLOOP DATACENTER BASEMENT
! <#Nodes on Return Air Path>,<Number of Nodes>
! <Return Air Path Node>,<Node Type>,<Node Count>,<Node Name>,<AirLoopHVAC Name>
   #Nodes on Return Air Path,2
   Return Air Path Node,Outlet Node,1,ZONEMIXER DATACENTER BASEMENT RETURN AIR OUTLET,AIRLOOP DATACENTER BASEMENT
   Return Air Path Node,Inlet Node,2,DATACENTER BASEMENT RETURN OUTLET,AIRLOOP DATACENTER BASEMENT
 Return Air Path,6,AIRLOOP DATACENTER BOT RETURN PATH,AIRLOOP DATACENTER BOT
   #Components on Return Air Path,1
   Return Air Path Component,1,AIRLOOPHVAC:ZONEMIXER,AIRLOOP DATACENTER BOT ZONE MIXER,AIRLOOP DATACENTER BOT
     #Inlet Nodes on Return Air Path Component,1
     Return Air Path Component Nodes,1,AIRLOOPHVAC:ZONEMIXER,AIRLOOP DATACENTER BOT ZONE MIXER,DATACENTER BOT RETURN OUTLET,ZONEMIXER DATACENTER BOT RETURN AIR OUTLET,AIRLOOP DATACENTER BOT
! <#Nodes on Return Air Path>,<Number of Nodes>
! <Return Air Path Node>,<Node Type>,<Node Count>,<Node Name>,<AirLoopHVAC Name>
   #Nodes on Return Air Path,2
   Return Air Path Node,Outlet Node,1,ZONEMIXER DATACENTER BOT RETURN AIR OUTLET,AIRLOOP DATACENTER BOT
   Return Air Path Node,Inlet Node,2,DATACENTER BOT RETURN OUTLET,AIRLOOP DATACENTER BOT
 Return Air Path,7,AIRLOOP DATACENTER MID RETURN PATH,AIRLOOP DATACENTER MID
   #Components on Return Air Path,1
   Return Air Path Component,1,AIRLOOPHVAC:ZONEMIXER,AIRLOOP DATACENTER MID ZONE MIXER,AIRLOOP DATACENTER MID
     #Inlet Nodes on Return Air Path Component,1
     Return Air Path Component Nodes,1,AIRLOOPHVAC:ZONEMIXER,AIRLOOP DATACENTER MID ZONE MIXER,DATACENTER MID RETURN OUTLET,ZONEMIXER DATACENTER MID RETURN AIR OUTLET,AIRLOOP DATACENTER MID
! <#Nodes on Return Air Path>,<Number of Nodes>
! <Return Air Path Node>,<Node Type>,<Node Count>,<Node Name>,<AirLoopHVAC Name>
   #Nodes on Return Air Path,2
   Return Air Path Node,Outlet Node,1,ZONEMIXER DATACENTER MID RETURN AIR OUTLET,AIRLOOP DATACENTER MID
   Return Air Path Node,Inlet Node,2,DATACENTER MID RETURN OUTLET,AIRLOOP DATACENTER MID
 Return Air Path,8,AIRLOOP DATACENTER TOP RETURN PATH,AIRLOOP DATACENTER TOP
   #Components on Return Air Path,1
   Return Air Path Component,1,AIRLOOPHVAC:ZONEMIXER,AIRLOOP DATACENTER TOP ZONE MIXER,AIRLOOP DATACENTER TOP
     #Inlet Nodes on Return Air Path Component,1
     Return Air Path Component Nodes,1,AIRLOOPHVAC:ZONEMIXER,AIRLOOP DATACENTER TOP ZONE MIXER,DATACENTER TOP RETURN OUTLET,ZONEMIXER DATACENTER TOP RETURN AIR OUTLET,AIRLOOP DATACENTER TOP
! <#Nodes on Return Air Path>,<Number of Nodes>
! <Return Air Path Node>,<Node Type>,<Node Count>,<Node Name>,<AirLoopHVAC Name>
   #Nodes on Return Air Path,2
   Return Air Path Node,Outlet Node,1,ZONEMIXER DATACENTER TOP RETURN AIR OUTLET,AIRLOOP DATACENTER TOP
   Return Air Path Node,Inlet Node,2,DATACENTER TOP RETURN OUTLET,AIRLOOP DATACENTER TOP
! ===============================================================
! #Outdoor Air Nodes,<Number of Outdoor Air Nodes>
 #Outdoor Air Nodes,9
! <Outdoor Air Node>,<NodeNumber>,<Node Name>
 Outdoor Air Node,17,CAV_BAS_OAINLET NODE
 Outdoor Air Node,18,VAV_BOT WITH REHEAT_OAINLET NODE
 Outdoor Air Node,19,VAV_MID WITH REHEAT_OAINLET NODE
 Outdoor Air Node,20,VAV_TOP WITH REHEAT_OAINLET NODE
 Outdoor Air Node,282,DATACENTER BASEMENT OUTSIDE AIR INLET
 Outdoor Air Node,283,DATACENTER BOT OUTSIDE AIR INLET
 Outdoor Air Node,284,DATACENTER MID OUTSIDE AIR INLET
 Outdoor Air Node,285,DATACENTER TOP OUTSIDE AIR INLET
 Outdoor Air Node,286,COMMON OSA INLET NODE
! ===============================================================
! <#Component Sets>,<Number of Component Sets>
 #Component Sets,170
! <Component Set>,<Component Set Count>,<Parent Object Type>,<Parent Object Name>,<Component Type>,<Component Name>,<Inlet Node ID>,<Outlet Node ID>,<Description>
 Component Set,1,BRANCH,CAV_BAS AIR LOOP MAIN BRANCH,AIRLOOPHVAC:OUTDOORAIRSYSTEM,CAV_BAS_OA,CAV_BAS SUPPLY EQUIPMENT INLET NODE,CAV_BAS_OA-CAV_COOLCNODE,Air Nodes
 Component Set,2,BRANCH,CAV_BAS AIR LOOP MAIN BRANCH,COIL:COOLING:WATER,CAV_BAS_COOLC,CAV_BAS_OA-CAV_COOLCNODE,CAV_BAS_COOLC-CAV_HEATCNODE,Air Nodes
 Component Set,3,BRANCH,CAV_BAS AIR LOOP MAIN BRANCH,COIL:HEATING:WATER,CAV_BAS_HEATC,CAV_BAS_COOLC-CAV_HEATCNODE,CAV_BAS_HEATC-CAV_FANNODE,Air Nodes
 Component Set,4,BRANCH,CAV_BAS AIR LOOP MAIN BRANCH,FAN:CONSTANTVOLUME,CAV_BAS FAN,CAV_BAS_HEATC-CAV_FANNODE,CAV_BAS SUPPLY EQUIPMENT OUTLET NODE,Air Nodes
 Component Set,5,BRANCH,VAV_BOT WITH REHEAT AIR LOOP MAIN BRANCH,AIRLOOPHVAC:OUTDOORAIRSYSTEM,VAV_BOT WITH REHEAT_OA,VAV_BOT WITH REHEAT SUPPLY EQUIPMENT INLET NODE,VAV_BOT WITH REHEAT_OA-VAV WITH REHEAT_COOLCNODE,Air Nodes
 Component Set,6,BRANCH,VAV_BOT WITH REHEAT AIR LOOP MAIN BRANCH,COIL:COOLING:WATER,VAV_BOT WITH REHEAT_COOLC,VAV_BOT WITH REHEAT_OA-VAV WITH REHEAT_COOLCNODE,VAV_BOT WITH REHEAT_COOLC-VAV WITH REHEAT_HEATCNODE,Air Nodes
 Component Set,7,BRANCH,VAV_BOT WITH REHEAT AIR LOOP MAIN BRANCH,COIL:HEATING:WATER,VAV_BOT WITH REHEAT_HEATC,VAV_BOT WITH REHEAT_COOLC-VAV WITH REHEAT_HEATCNODE,VAV_BOT WITH REHEAT_HEATC-VAV WITH REHEAT FANNODE,Air Nodes
 Component Set,8,BRANCH,VAV_BOT WITH REHEAT AIR LOOP MAIN BRANCH,FAN:VARIABLEVOLUME,VAV_BOT WITH REHEAT FAN,VAV_BOT WITH REHEAT_HEATC-VAV WITH REHEAT FANNODE,VAV_BOT WITH REHEAT SUPPLY EQUIPMENT OUTLET NODE,Air Nodes
 Component Set,9,BRANCH,VAV_MID WITH REHEAT AIR LOOP MAIN BRANCH,AIRLOOPHVAC:OUTDOORAIRSYSTEM,VAV_MID WITH REHEAT_OA,VAV_MID WITH REHEAT SUPPLY EQUIPMENT INLET NODE,VAV_MID WITH REHEAT_OA-VAV WITH REHEAT_COOLCNODE,Air Nodes
 Component Set,10,BRANCH,VAV_MID WITH REHEAT AIR LOOP MAIN BRANCH,COIL:COOLING:WATER,VAV_MID WITH REHEAT_COOLC,VAV_MID WITH REHEAT_OA-VAV WITH REHEAT_COOLCNODE,VAV_MID WITH REHEAT_COOLC-VAV WITH REHEAT_HEATCNODE,Air Nodes
 Component Set,11,BRANCH,VAV_MID WITH REHEAT AIR LOOP MAIN BRANCH,COIL:HEATING:WATER,VAV_MID WITH REHEAT_HEATC,VAV_MID WITH REHEAT_COOLC-VAV WITH REHEAT_HEATCNODE,VAV_MID WITH REHEAT_HEATC-VAV WITH REHEAT FANNODE,Air Nodes
 Component Set,12,BRANCH,VAV_MID WITH REHEAT AIR LOOP MAIN BRANCH,FAN:VARIABLEVOLUME,VAV_MID WITH REHEAT FAN,VAV_MID WITH REHEAT_HEATC-VAV WITH REHEAT FANNODE,VAV_MID WITH REHEAT SUPPLY EQUIPMENT OUTLET NODE,Air Nodes
 Component Set,13,BRANCH,VAV_TOP WITH REHEAT AIR LOOP MAIN BRANCH,AIRLOOPHVAC:OUTDOORAIRSYSTEM,VAV_TOP WITH REHEAT_OA,VAV_TOP WITH REHEAT SUPPLY EQUIPMENT INLET NODE,VAV_TOP WITH REHEAT_OA-VAV WITH REHEAT_COOLCNODE,Air Nodes
 Component Set,14,BRANCH,VAV_TOP WITH REHEAT AIR LOOP MAIN BRANCH,COIL:COOLING:WATER,VAV_TOP WITH REHEAT_COOLC,VAV_TOP WITH REHEAT_OA-VAV WITH REHEAT_COOLCNODE,VAV_TOP WITH REHEAT_COOLC-VAV WITH REHEAT_HEATCNODE,Air Nodes
 Component Set,15,BRANCH,VAV_TOP WITH REHEAT AIR LOOP MAIN BRANCH,COIL:HEATING:WATER,VAV_TOP WITH REHEAT_HEATC,VAV_TOP WITH REHEAT_COOLC-VAV WITH REHEAT_HEATCNODE,VAV_TOP WITH REHEAT_HEATC-VAV WITH REHEAT FANNODE,Air Nodes
 Component Set,16,BRANCH,VAV_TOP WITH REHEAT AIR LOOP MAIN BRANCH,FAN:VARIABLEVOLUME,VAV_TOP WITH REHEAT FAN,VAV_TOP WITH REHEAT_HEATC-VAV WITH REHEAT FANNODE,VAV_TOP WITH REHEAT SUPPLY EQUIPMENT OUTLET NODE,Air Nodes
 Component Set,17,BRANCH,SHWSYS1 SUPPLY INLET BRANCH,PUMP:CONSTANTSPEED,SHWSYS1 PUMP,SHWSYS1 SUPPLY INLET NODE,SHWSYS1 PUMP-SHWSYS1 WATER HEATERNODEVIACONNECTOR,Water Nodes
 Component Set,18,BRANCH,SHWSYS1 SUPPLY EQUIPMENT BRANCH,WATERHEATER:MIXED,SHWSYS1 WATER HEATER,SHWSYS1 PUMP-SHWSYS1 WATER HEATERNODE,SHWSYS1 SUPPLY EQUIPMENT OUTLET NODE,Use Side Water Nodes
 Component Set,19,BRANCH,SHWSYS1 SUPPLY EQUIPMENT BYPASS BRANCH,PIPE:ADIABATIC,SHWSYS1 SUPPLY EQUIPMENT BYPASS PIPE,SHWSYS1 SUPPLY EQUIP BYPASS INLET NODE,SHWSYS1 SUPPLY EQUIP BYPASS OUTLET NODE,Pipe Nodes
 Component Set,20,BRANCH,SHWSYS1 SUPPLY OUTLET BRANCH,PIPE:ADIABATIC,SHWSYS1 SUPPLY OUTLET PIPE,SHWSYS1 SUPPLY MIXER-SHWSYS1 SUPPLY OUTLET PIPE,SHWSYS1 SUPPLY OUTLET NODE,Pipe Nodes
 Component Set,21,BRANCH,SHWSYS1 DEMAND INLET BRANCH,PIPE:ADIABATIC,SHWSYS1 DEMAND INLET PIPE,SHWSYS1 DEMAND INLET NODE,SHWSYS1 DEMAND INLET PIPE-SHWSYS1 DEMAND MIXER,Pipe Nodes
 Component Set,22,BRANCH,SHWSYS1 DEMAND LOAD BRANCH 1,WATERUSE:CONNECTIONS,CORE_BOTTOM SUB CAT,CORE_BOTTOM SUB CAT WATER INLET NODE,CORE_BOTTOM SUB CAT WATER OUTLET NODE,DHW Nodes
 Component Set,23,BRANCH,SHWSYS1 DEMAND LOAD BRANCH 2,WATERUSE:CONNECTIONS,CORE_MID SUB CAT,CORE_MID SUB CAT WATER INLET NODE,CORE_MID SUB CAT WATER OUTLET NODE,DHW Nodes
 Component Set,24,BRANCH,SHWSYS1 DEMAND LOAD BRANCH 3,WATERUSE:CONNECTIONS,CORE_TOP SUB CAT,CORE_TOP SUB CAT WATER INLET NODE,CORE_TOP SUB CAT WATER OUTLET NODE,DHW Nodes
 Component Set,25,BRANCH,SHWSYS1 DEMAND BYPASS BRANCH,PIPE:ADIABATIC,SHWSYS1 DEMAND BYPASS PIPE,SHWSYS1 DEMAND BYPASS PIPE INLET NODE,SHWSYS1 DEMAND BYPASS PIPE OUTLET NODE,Pipe Nodes
 Component Set,26,BRANCH,SHWSYS1 DEMAND OUTLET BRANCH,PIPE:ADIABATIC,SHWSYS1 DEMAND OUTLET PIPE,SHWSYS1 DEMAND MIXER-SHWSYS1 DEMAND OUTLET PIPE,SHWSYS1 DEMAND OUTLET NODE,Pipe Nodes
 Component Set,27,BRANCH,HEATSYS1 SUPPLY INLET BRANCH,PUMP:VARIABLESPEED,HEATSYS1 PUMP,HEATSYS1 SUPPLY INLET NODE,HEATSYS1 PUMP-HEATSYS1 BOILERNODEVIACONNECTOR,Water Nodes
 Component Set,28,BRANCH,HEATSYS1 SUPPLY EQUIPMENT BRANCH,BOILER:HOTWATER,HEATSYS1 BOILER,HEATSYS1 PUMP-HEATSYS1 BOILERNODE,HEATSYS1 SUPPLY EQUIPMENT OUTLET NODE,Hot Water Nodes
 Component Set,29,BRANCH,HEATSYS1 SUPPLY EQUIPMENT BYPASS BRANCH,PIPE:ADIABATIC,HEATSYS1 SUPPLY EQUIPMENT BYPASS PIPE,HEATSYS1 SUPPLY EQUIP BYPASS INLET NODE,HEATSYS1 SUPPLY EQUIP BYPASS OUTLET NODE,Pipe Nodes
 Component Set,30,BRANCH,HEATSYS1 SUPPLY OUTLET BRANCH,PIPE:ADIABATIC,HEATSYS1 SUPPLY OUTLET PIPE,HEATSYS1 SUPPLY MIXER-HEATSYS1 SUPPLY OUTLET PIPE,HEATSYS1 SUPPLY OUTLET NODE,Pipe Nodes
 Component Set,31,BRANCH,HEATSYS1 DEMAND INLET BRANCH,PIPE:ADIABATIC,HEATSYS1 DEMAND INLET PIPE,HEATSYS1 DEMAND INLET NODE,HEATSYS1 DEMAND INLET PIPE-HEATSYS1 DEMAND MIXER,Pipe Nodes
 Component Set,32,BRANCH,HEATSYS1 DEMAND LOAD BRANCH 1,COIL:HEATING:WATER,CORE_BOTTOM VAV BOX REHEAT COIL,CORE_BOTTOM VAV BOX REHEAT COILDEMAND INLET NODE,CORE_BOTTOM VAV BOX REHEAT COILDEMAND OUTLET NODE,Water Nodes
 Component Set,33,BRANCH,HEATSYS1 DEMAND LOAD BRANCH 2,COIL:HEATING:WATER,CORE_MID VAV BOX REHEAT COIL,CORE_MID VAV BOX REHEAT COILDEMAND INLET NODE,CORE_MID VAV BOX REHEAT COILDEMAND OUTLET NODE,Water Nodes
 Component Set,34,BRANCH,HEATSYS1 DEMAND LOAD BRANCH 3,COIL:HEATING:WATER,CORE_TOP VAV BOX REHEAT COIL,CORE_TOP VAV BOX REHEAT COILDEMAND INLET NODE,CORE_TOP VAV BOX REHEAT COILDEMAND OUTLET NODE,Water Nodes
 Component Set,35,BRANCH,HEATSYS1 DEMAND LOAD BRANCH 4,COIL:HEATING:WATER,PERIMETER_BOT_ZN_3 VAV BOX REHEAT COIL,PERIMETER_BOT_ZN_3 VAV BOX REHEAT COILDEMAND INLET NODE,PERIMETER_BOT_ZN_3 VAV BOX REHEAT COILDEMAND OUTLET NODE,Water Nodes
 Component Set,36,BRANCH,HEATSYS1 DEMAND LOAD BRANCH 5,COIL:HEATING:WATER,PERIMETER_BOT_ZN_2 VAV BOX REHEAT COIL,PERIMETER_BOT_ZN_2 VAV BOX REHEAT COILDEMAND INLET NODE,PERIMETER_BOT_ZN_2 VAV BOX REHEAT COILDEMAND OUTLET NODE,Water Nodes
 Component Set,37,BRANCH,HEATSYS1 DEMAND LOAD BRANCH 6,COIL:HEATING:WATER,PERIMETER_BOT_ZN_1 VAV BOX REHEAT COIL,PERIMETER_BOT_ZN_1 VAV BOX REHEAT COILDEMAND INLET NODE,PERIMETER_BOT_ZN_1 VAV BOX REHEAT COILDEMAND OUTLET NODE,Water Nodes
 Component Set,38,BRANCH,HEATSYS1 DEMAND LOAD BRANCH 7,COIL:HEATING:WATER,PERIMETER_BOT_ZN_4 VAV BOX REHEAT COIL,PERIMETER_BOT_ZN_4 VAV BOX REHEAT COILDEMAND INLET NODE,PERIMETER_BOT_ZN_4 VAV BOX REHEAT COILDEMAND OUTLET NODE,Water Nodes
 Component Set,39,BRANCH,HEATSYS1 DEMAND LOAD BRANCH 8,COIL:HEATING:WATER,PERIMETER_MID_ZN_3 VAV BOX REHEAT COIL,PERIMETER_MID_ZN_3 VAV BOX REHEAT COILDEMAND INLET NODE,PERIMETER_MID_ZN_3 VAV BOX REHEAT COILDEMAND OUTLET NODE,Water Nodes
 Component Set,40,BRANCH,HEATSYS1 DEMAND LOAD BRANCH 9,COIL:HEATING:WATER,PERIMETER_MID_ZN_2 VAV BOX REHEAT COIL,PERIMETER_MID_ZN_2 VAV BOX REHEAT COILDEMAND INLET NODE,PERIMETER_MID_ZN_2 VAV BOX REHEAT COILDEMAND OUTLET NODE,Water Nodes
 Component Set,41,BRANCH,HEATSYS1 DEMAND LOAD BRANCH 10,COIL:HEATING:WATER,PERIMETER_MID_ZN_1 VAV BOX REHEAT COIL,PERIMETER_MID_ZN_1 VAV BOX REHEAT COILDEMAND INLET NODE,PERIMETER_MID_ZN_1 VAV BOX REHEAT COILDEMAND OUTLET NODE,Water Nodes
 Component Set,42,BRANCH,HEATSYS1 DEMAND LOAD BRANCH 11,COIL:HEATING:WATER,PERIMETER_MID_ZN_4 VAV BOX REHEAT COIL,PERIMETER_MID_ZN_4 VAV BOX REHEAT COILDEMAND INLET NODE,PERIMETER_MID_ZN_4 VAV BOX REHEAT COILDEMAND OUTLET NODE,Water Nodes
 Component Set,43,BRANCH,HEATSYS1 DEMAND LOAD BRANCH 12,COIL:HEATING:WATER,PERIMETER_TOP_ZN_3 VAV BOX REHEAT COIL,PERIMETER_TOP_ZN_3 VAV BOX REHEAT COILDEMAND INLET NODE,PERIMETER_TOP_ZN_3 VAV BOX REHEAT COILDEMAND OUTLET NODE,Water Nodes
 Component Set,44,BRANCH,HEATSYS1 DEMAND LOAD BRANCH 13,COIL:HEATING:WATER,PERIMETER_TOP_ZN_2 VAV BOX REHEAT COIL,PERIMETER_TOP_ZN_2 VAV BOX REHEAT COILDEMAND INLET NODE,PERIMETER_TOP_ZN_2 VAV BOX REHEAT COILDEMAND OUTLET NODE,Water Nodes
 Component Set,45,BRANCH,HEATSYS1 DEMAND LOAD BRANCH 14,COIL:HEATING:WATER,PERIMETER_TOP_ZN_1 VAV BOX REHEAT COIL,PERIMETER_TOP_ZN_1 VAV BOX REHEAT COILDEMAND INLET NODE,PERIMETER_TOP_ZN_1 VAV BOX REHEAT COILDEMAND OUTLET NODE,Water Nodes
 Component Set,46,BRANCH,HEATSYS1 DEMAND LOAD BRANCH 15,COIL:HEATING:WATER,PERIMETER_TOP_ZN_4 VAV BOX REHEAT COIL,PERIMETER_TOP_ZN_4 VAV BOX REHEAT COILDEMAND INLET NODE,PERIMETER_TOP_ZN_4 VAV BOX REHEAT COILDEMAND OUTLET NODE,Water Nodes
 Component Set,47,BRANCH,HEATSYS1 DEMAND LOAD BRANCH 17,COIL:HEATING:WATER,VAV_BOT WITH REHEAT_HEATC,VAV_BOT WITH REHEAT_HEATCDEMAND INLET NODE,VAV_BOT WITH REHEAT_HEATCDEMAND OUTLET NODE,Water Nodes
 Component Set,48,BRANCH,HEATSYS1 DEMAND LOAD BRANCH 18,COIL:HEATING:WATER,VAV_MID WITH REHEAT_HEATC,VAV_MID WITH REHEAT_HEATCDEMAND INLET NODE,VAV_MID WITH REHEAT_HEATCDEMAND OUTLET NODE,Water Nodes
 Component Set,49,BRANCH,HEATSYS1 DEMAND LOAD BRANCH 19,COIL:HEATING:WATER,VAV_TOP WITH REHEAT_HEATC,VAV_TOP WITH REHEAT_HEATCDEMAND INLET NODE,VAV_TOP WITH REHEAT_HEATCDEMAND OUTLET NODE,Water Nodes
 Component Set,50,BRANCH,HEATSYS1 DEMAND LOAD BRANCH 20,COIL:HEATING:WATER,CAV_BAS_HEATC,CAV_BAS_HEATCDEMAND INLET NODE,CAV_BAS_HEATCDEMAND OUTLET NODE,Water Nodes
 Component Set,51,BRANCH,HEATSYS1 DEMAND LOAD BRANCH 21,COIL:HEATING:WATER,DATACENTER_EXTRAWATERHEATC,DATACENTER_EXTRAWATERHEATCDEMAND INLET NODE,DATACENTER_EXTRAWATERHEATCDEMAND OUTLET NODE,Water Nodes
 Component Set,52,BRANCH,HEATSYS1 DEMAND BYPASS BRANCH,PIPE:ADIABATIC,HEATSYS1 DEMAND BYPASS PIPE,HEATSYS1 DEMAND BYPASS PIPE INLET NODE,HEATSYS1 DEMAND BYPASS PIPE OUTLET NODE,Pipe Nodes
 Component Set,53,BRANCH,HEATSYS1 DEMAND OUTLET BRANCH,PIPE:ADIABATIC,HEATSYS1 DEMAND OUTLET PIPE,HEATSYS1 DEMAND MIXER-HEATSYS1 DEMAND OUTLET PIPE,HEATSYS1 DEMAND OUTLET NODE,Pipe Nodes
 Component Set,54,BRANCH,COOLSYS1 SUPPLY INLET BRANCH,PIPE:ADIABATIC,COOLSYS1 SUPPLY INLET PIPE,COOLSYS1 SUPPLY INLET NODE,COOLSYS1 PUMP-COOLSYS1 CHILLERNODEVIACONNECTOR,Pipe Nodes
 Component Set,55,BRANCH,COOLSYS1 SUPPLY EQUIPMENT BRANCH 1,PUMP:CONSTANTSPEED,COOLSYS1 CHILLER1 PUMP,COOLSYS1 CHILLER1 PUMP INLET NODE,COOLSYS1 PUMP-COOLSYS1 CHILLER1NODE,Water Nodes
 Component Set,56,BRANCH,COOLSYS1 SUPPLY EQUIPMENT BRANCH 1,CHILLER:ELECTRIC:REFORMULATEDEIR,COOLSYS1 CHILLER1,COOLSYS1 PUMP-COOLSYS1 CHILLER1NODE,COOLSYS1 SUPPLY EQUIPMENT OUTLET NODE 1,Chilled Water Nodes
 Component Set,57,BRANCH,COOLSYS1 SUPPLY EQUIPMENT BRANCH 2,PUMP:CONSTANTSPEED,COOLSYS1 CHILLER2 PUMP,COOLSYS1 CHILLER2 PUMP INLET NODE,COOLSYS1 PUMP-COOLSYS1 CHILLER2NODE,Water Nodes
 Component Set,58,BRANCH,COOLSYS1 SUPPLY EQUIPMENT BRANCH 2,CHILLER:ELECTRIC:REFORMULATEDEIR,COOLSYS1 CHILLER2,COOLSYS1 PUMP-COOLSYS1 CHILLER2NODE,COOLSYS1 SUPPLY EQUIPMENT OUTLET NODE 2,Chilled Water Nodes
 Component Set,59,BRANCH,COOLSYS1 SUPPLY EQUIPMENT BYPASS BRANCH,PIPE:ADIABATIC,COOLSYS1 SUPPLY EQUIPMENT BYPASS PIPE,COOLSYS1 SUPPLY EQUIP BYPASS INLET NODE,COOLSYS1 SUPPLY EQUIP BYPASS OUTLET NODE,Pipe Nodes
 Component Set,60,BRANCH,COOLSYS1 SUPPLY OUTLET BRANCH,PIPE:ADIABATIC,COOLSYS1 SUPPLY OUTLET PIPE,COOLSYS1 SUPPLY MIXER-COOLSYS1 SUPPLY OUTLET PIPE,COOLSYS1 SUPPLY OUTLET NODE,Pipe Nodes
 Component Set,61,BRANCH,COOLSYS1 DEMAND INLET BRANCH,PUMP:VARIABLESPEED,COOLSYS1 PUMP SECONDARY,COOLSYS1 DEMAND INLET NODE,COOLSYS1 PUMP SECONDARY-COOLSYS1 DEMAND MIXER,Water Nodes
 Component Set,62,BRANCH,COOLSYS1 DEMAND LOAD BRANCH 1,COIL:COOLING:WATER,VAV_BOT WITH REHEAT_COOLC,VAV_BOT WITH REHEAT_COOLCDEMAND INLET NODE,VAV_BOT WITH REHEAT_COOLCDEMAND OUTLET NODE,Water Nodes
 Component Set,63,BRANCH,COOLSYS1 DEMAND LOAD BRANCH 2,COIL:COOLING:WATER,VAV_MID WITH REHEAT_COOLC,VAV_MID WITH REHEAT_COOLCDEMAND INLET NODE,VAV_MID WITH REHEAT_COOLCDEMAND OUTLET NODE,Water Nodes
 Component Set,64,BRANCH,COOLSYS1 DEMAND LOAD BRANCH 3,COIL:COOLING:WATER,VAV_TOP WITH REHEAT_COOLC,VAV_TOP WITH REHEAT_COOLCDEMAND INLET NODE,VAV_TOP WITH REHEAT_COOLCDEMAND OUTLET NODE,Water Nodes
 Component Set,65,BRANCH,COOLSYS1 DEMAND LOAD BRANCH 4,COIL:COOLING:WATER,CAV_BAS_COOLC,CAV_BAS_COOLCDEMAND INLET NODE,CAV_BAS_COOLCDEMAND OUTLET NODE,Water Nodes
 Component Set,66,BRANCH,COOLSYS1 DEMAND OUTLET BRANCH,PIPE:ADIABATIC,COOLSYS1 DEMAND OUTLET PIPE,COOLSYS1 DEMAND MIXER-COOLSYS1 DEMAND OUTLET PIPE,COOLSYS1 DEMAND OUTLET NODE,Pipe Nodes
 Component Set,67,BRANCH,TOWERWATERSYS SUPPLY INLET BRANCH,HEADEREDPUMPS:VARIABLESPEED,TOWERWATERSYS PUMP,TOWERWATERSYS SUPPLY INLET NODE,TOWERWATERSYS PUMP-TOWERWATERSYS COOLTOWERNODEVIACONNECTOR,Water Nodes
 Component Set,68,BRANCH,TOWERWATERSYS SUPPLY EQUIPMENT BRANCH 1,COOLINGTOWER:VARIABLESPEED,TOWERWATERSYS COOLTOWER 1,TOWERWATERSYS PUMP-TOWERWATERSYS COOLTOWER1NODE,TOWERWATERSYS SUPPLY EQUIPMENT OUTLET NODE 1,Chilled Water Nodes
 Component Set,69,BRANCH,TOWERWATERSYS SUPPLY EQUIPMENT BRANCH 2,COOLINGTOWER:VARIABLESPEED,TOWERWATERSYS COOLTOWER 2,TOWERWATERSYS PUMP-TOWERWATERSYS COOLTOWER2NODE,TOWERWATERSYS SUPPLY EQUIPMENT OUTLET NODE 2,Chilled Water Nodes
 Component Set,70,BRANCH,TOWERWATERSYS SUPPLY EQUIPMENT BYPASS BRANCH,PIPE:ADIABATIC,TOWERWATERSYS SUPPLY EQUIPMENT BYPASS PIPE,TOWERWATERSYS SUPPLY EQUIP BYPASS INLET NODE,TOWERWATERSYS SUPPLY EQUIP BYPASS OUTLET NODE,Pipe Nodes
 Component Set,71,BRANCH,TOWERWATERSYS SUPPLY OUTLET BRANCH,PIPE:ADIABATIC,TOWERWATERSYS SUPPLY OUTLET PIPE,TOWERWATERSYS SUPPLY MIXER-TOWERWATERSYS SUPPLY OUTLET PIPE,TOWERWATERSYS SUPPLY OUTLET NODE,Pipe Nodes
 Component Set,72,BRANCH,TOWERWATERSYS DEMAND INLET BRANCH,PIPE:ADIABATIC,TOWERWATERSYS DEMAND INLET PIPE,TOWERWATERSYS DEMAND INLET NODE,TOWERWATERSYS DEMAND INLET PIPE-TOWERWATERSYS DEMAND MIXER,Pipe Nodes
 Component Set,73,BRANCH,TOWERWATERSYS DEMAND LOAD BRANCH 1,CHILLER:ELECTRIC:REFORMULATEDEIR,COOLSYS1 CHILLER1,COOLSYS1 CHILLER1 WATER INLET NODE,COOLSYS1 CHILLER1 WATER OUTLET NODE,Condenser Water Nodes
 Component Set,74,BRANCH,TOWERWATERSYS DEMAND LOAD BRANCH 2,CHILLER:ELECTRIC:REFORMULATEDEIR,COOLSYS1 CHILLER2,COOLSYS1 CHILLER2 WATER INLET NODE,COOLSYS1 CHILLER2 WATER OUTLET NODE,Condenser Water Nodes
 Component Set,75,BRANCH,TOWERWATERSYS DEMAND BYPASS BRANCH,PIPE:ADIABATIC,TOWERWATERSYS DEMAND BYPASS PIPE,TOWERWATERSYS DEMAND BYPASS PIPE INLET NODE,TOWERWATERSYS DEMAND BYPASS PIPE OUTLET NODE,Pipe Nodes
 Component Set,76,BRANCH,TOWERWATERSYS DEMAND OUTLET BRANCH,PIPE:ADIABATIC,TOWERWATERSYS DEMAND OUTLET PIPE,TOWERWATERSYS DEMAND MIXER-TOWERWATERSYS DEMAND OUTLET PIPE,TOWERWATERSYS DEMAND OUTLET NODE,Pipe Nodes
 Component Set,77,BRANCH,COOLSYS1 HEAT EXCHANGER SUPPLY BRANCH,HEATEXCHANGER:FLUIDTOFLUID,BYPASS HEAT EXCHANGER,COOLSYS1 EXCHANCHER SUPPLY INLET NODE,COOLSYS1 EXCHANCHER SUPPLY OUTLET NODE,Loop Demand Side Plant Nodes
 Component Set,78,BRANCH,COOLSYS1 HEAT EXCHANGER DEMAND BRANCH,HEATEXCHANGER:FLUIDTOFLUID,BYPASS HEAT EXCHANGER,COOLSYS1 EXCHANCHER DEMAND INLET NODE,COOLSYS1 EXCHANCHER DEMAND OUTLET NODE,Loop Supply Side Plant Nodes
 Component Set,79,BRANCH,COOLSYS1 SUPPLY SIDE BYPASS,PIPE:ADIABATIC,COOLSYS1 SUPPLY BYPASS,COOLSYS1 SUPPLY BYPASS INLET NODE,COOLSYS1 SUPPLY BYPASS OUTLET NODE,Pipe Nodes
 Component Set,80,BRANCH,COOLSYS1 DEMAND SIDE BYPASS,PIPE:ADIABATIC,COOLSYS1 DEMAND BYPASS,COOLSYS1 DEMAND BYPASS INLET NODE,COOLSYS1 DEMAND BYPASS OUTLET NODE,Pipe Nodes
 Component Set,81,BRANCH,COOLSYS1 SUPPLY DEMAND SIDE INLET BRANCH,PIPE:ADIABATIC,COOLSYS1 SUPPLY DEMAND SIDE INLET PIPE,COOLSYS1 SUPPLY DEMAND SIDE INLET PIPE INLET NODE,COOLSYS1 SUPPLY DEMAND SIDE INLET PIPE OUTLET NODE,Pipe Nodes
 Component Set,82,BRANCH,COOLSYS1 SUPPLY DEMAND SIDE OUTLET BRANCH,PIPE:ADIABATIC,COOLSYS1 SUPPLY DEMAND SIDE OUTLET PIPE,COOLSYS1 SUPPLY DEMAND SIDE OUTLET PIPE INLET NODE,COOLSYS1 SUPPLY DEMAND SIDE OUTLET PIPE OUTLET NODE,Pipe Nodes
 Component Set,83,BRANCH,COOLSYS1 DEMAND SUPPLY SIDE INLET BRANCH,PIPE:ADIABATIC,COOLSYS1 DEMAND SUPPLY SIDE INLET PIPE,COOLSYS1 DEMAND SUPPLY SIDE INLET PIPE INLET NODE,COOLSYS1 DEMAND SUPPLY SIDE INLET PIPE OUTLET NODE,Pipe Nodes
 Component Set,84,BRANCH,COOLSYS1 DEMAND SUPPLY SIDE OUTLET BRANCH,PIPE:ADIABATIC,COOLSYS1 DEMAND SUPPLY SIDE OUTLET PIPE,COOLSYS1 DEMAND SUPPLY SIDE OUTLET PIPE INLET NODE,COOLSYS1 DEMAND SUPPLY SIDE OUTLET PIPE OUTLET NODE,Pipe Nodes
 Component Set,85,BRANCH,AIRLOOP DATACENTER BASEMENT MAIN BRANCH,AIRLOOPHVAC:OUTDOORAIRSYSTEM,AIRLOOP DATACENTER BASEMENT OA SYSTEM,AIRLOOP DATACENTER BASEMENT RETURN AIR INLET,DATACENTER BASEMENT MIXED AIR OUTLET,Air Nodes
 Component Set,86,BRANCH,AIRLOOP DATACENTER BASEMENT MAIN BRANCH,AIRLOOPHVAC:UNITARYHEATPUMP:WATERTOAIR,AIRLOOP DATACENTER BASEMENT DXAC HEAT PUMP,DATACENTER BASEMENT MIXED AIR OUTLET,AIRLOOP DATACENTER BASEMENT HUMIDIFIER INLET,Air Nodes
 Component Set,87,BRANCH,AIRLOOP DATACENTER BASEMENT MAIN BRANCH,HUMIDIFIER:STEAM:ELECTRIC,DATACENTER BASEMENT HUMIDIFIER,AIRLOOP DATACENTER BASEMENT HUMIDIFIER INLET,DATACENTER_HUMIDIFIER-DATACENTER_EXTRAELECHEATCNODE,Air Nodes
 Component Set,88,BRANCH,AIRLOOP DATACENTER BASEMENT MAIN BRANCH,COIL:HEATING:ELECTRIC,DATACENTER_EXTRAELECHEATC,DATACENTER_HUMIDIFIER-DATACENTER_EXTRAELECHEATCNODE,DATACENTER_EXTRAELECHEATC-DATACENTER_EXTRAWATERHEATCNODE,Air Nodes
 Component Set,89,BRANCH,AIRLOOP DATACENTER BASEMENT MAIN BRANCH,COIL:HEATING:WATER,DATACENTER_EXTRAWATERHEATC,DATACENTER_EXTRAELECHEATC-DATACENTER_EXTRAWATERHEATCNODE,AIRLOOP DATACENTER BASEMENT SUPPLY AIR OUTLET,Air Nodes
 Component Set,90,BRANCH,AIRLOOP DATACENTER BOT MAIN BRANCH,AIRLOOPHVAC:OUTDOORAIRSYSTEM,AIRLOOP DATACENTER BOT OA SYSTEM,AIRLOOP DATACENTER BOT RETURN AIR INLET,DATACENTER BOT MIXED AIR OUTLET,Air Nodes
 Component Set,91,BRANCH,AIRLOOP DATACENTER BOT MAIN BRANCH,AIRLOOPHVAC:UNITARYHEATPUMP:WATERTOAIR,AIRLOOP DATACENTER BOT DXAC HEAT PUMP,DATACENTER BOT MIXED AIR OUTLET,AIRLOOP DATACENTER BOT SUPPLY AIR OUTLET,Air Nodes
 Component Set,92,BRANCH,AIRLOOP DATACENTER MID MAIN BRANCH,AIRLOOPHVAC:OUTDOORAIRSYSTEM,AIRLOOP DATACENTER MID OA SYSTEM,AIRLOOP DATACENTER MID RETURN AIR INLET,DATACENTER MID MIXED AIR OUTLET,Air Nodes
 Component Set,93,BRANCH,AIRLOOP DATACENTER MID MAIN BRANCH,AIRLOOPHVAC:UNITARYHEATPUMP:WATERTOAIR,AIRLOOP DATACENTER MID DXAC HEAT PUMP,DATACENTER MID MIXED AIR OUTLET,AIRLOOP DATACENTER MID SUPPLY AIR OUTLET,Air Nodes
 Component Set,94,BRANCH,AIRLOOP DATACENTER TOP MAIN BRANCH,AIRLOOPHVAC:OUTDOORAIRSYSTEM,AIRLOOP DATACENTER TOP OA SYSTEM,AIRLOOP DATACENTER TOP RETURN AIR INLET,DATACENTER TOP MIXED AIR OUTLET,Air Nodes
 Component Set,95,BRANCH,AIRLOOP DATACENTER TOP MAIN BRANCH,AIRLOOPHVAC:UNITARYHEATPUMP:WATERTOAIR,AIRLOOP DATACENTER TOP DXAC HEAT PUMP,DATACENTER TOP MIXED AIR OUTLET,AIRLOOP DATACENTER TOP SUPPLY AIR OUTLET,Air Nodes
 Component Set,96,BRANCH,PLANT SUPPLY INLET BRANCH,PUMP:CONSTANTSPEED,PLANT CIRC PUMP,PLANT SUPPLY INLET NODE,PLANT PUMP OUTLET NODE,Water Nodes
 Component Set,97,BRANCH,PLANT SUPPLY TOWER BRANCH,FLUIDCOOLER:TWOSPEED,CENTRAL TOWER,CENTRAL TOWER INLET NODE,CENTRAL TOWER OUTLET NODE,Chilled Water Nodes
 Component Set,98,BRANCH,DUMMY BOILER BRANCH,BOILER:HOTWATER,DUMMY BOILER,DUMMY BOILER INLET NODE,DUMMY BOILER OUTLET NODE,Hot Water Nodes
 Component Set,99,BRANCH,PLANT SUPPLY BYPASS BRANCH,PIPE:ADIABATIC,PLANT SUPPLY SIDE BYPASS,PLANT SUPPLY BYPASS INLET NODE,PLANT SUPPLY BYPASS OUTLET NODE,Pipe Nodes
 Component Set,100,BRANCH,PLANT SUPPLY OUTLET BRANCH,PIPE:ADIABATIC,PLANT SUPPLY OUTLET,PLANT SUPPLY EXIT PIPE INLET NODE,PLANT SUPPLY OUTLET NODE,Pipe Nodes
 Component Set,101,BRANCH,PLANT DEMAND INLET BRANCH,PIPE:ADIABATIC,PLANT DEMAND INLET PIPE,PLANT DEMAND INLET NODE,PLANT DEMAND ENTRANCE PIPE OUTLET NODE,Pipe Nodes
 Component Set,102,BRANCH,PLANT DEMAND BYPASS BRANCH,PIPE:ADIABATIC,PLANT DEMAND SIDE BYPASS,COND DEMAND BYPASS INLET NODE,COND DEMAND BYPASS OUTLET NODE,Pipe Nodes
 Component Set,103,BRANCH,PLANT DEMAND OUTLET BRANCH,PIPE:ADIABATIC,PLANT DEMAND OUTLET PIPE,PLANT DEMAND EXIT PIPE INLET NODE,PLANT DEMAND OUTLET NODE,Pipe Nodes
[...]
 Non-Parent Node Connection,VAV_BOT WITH REHEAT_OAINLET NODE,OUTDOORAIR:MIXER,VAV_BOT WITH REHEAT_OAMIXING BOX,Inlet,1
 Non-Parent Node Connection,VAV_BOT WITH REHEAT_OARELIEF NODE,OUTDOORAIR:MIXER,VAV_BOT WITH REHEAT_OAMIXING BOX,ReliefAir,1
 Non-Parent Node Connection,VAV_BOT WITH REHEAT SUPPLY EQUIPMENT INLET NODE,OUTDOORAIR:MIXER,VAV_BOT WITH REHEAT_OAMIXING BOX,Inlet,1
 Non-Parent Node Connection,VAV_MID WITH REHEAT_OA-VAV WITH REHEAT_COOLCNODE,OUTDOORAIR:MIXER,VAV_MID WITH REHEAT_OAMIXING BOX,Outlet,1
 Non-Parent Node Connection,VAV_MID WITH REHEAT_OAINLET NODE,OUTDOORAIR:MIXER,VAV_MID WITH REHEAT_OAMIXING BOX,Inlet,1
 Non-Parent Node Connection,VAV_MID WITH REHEAT_OARELIEF NODE,OUTDOORAIR:MIXER,VAV_MID WITH REHEAT_OAMIXING BOX,ReliefAir,1
 Non-Parent Node Connection,VAV_MID WITH REHEAT SUPPLY EQUIPMENT INLET NODE,OUTDOORAIR:MIXER,VAV_MID WITH REHEAT_OAMIXING BOX,Inlet,1
 Non-Parent Node Connection,VAV_TOP WITH REHEAT_OA-VAV WITH REHEAT_COOLCNODE,OUTDOORAIR:MIXER,VAV_TOP WITH REHEAT_OAMIXING BOX,Outlet,1
 Non-Parent Node Connection,VAV_TOP WITH REHEAT_OAINLET NODE,OUTDOORAIR:MIXER,VAV_TOP WITH REHEAT_OAMIXING BOX,Inlet,1
 Non-Parent Node Connection,VAV_TOP WITH REHEAT_OARELIEF NODE,OUTDOORAIR:MIXER,VAV_TOP WITH REHEAT_OAMIXING BOX,ReliefAir,1
 Non-Parent Node Connection,VAV_TOP WITH REHEAT SUPPLY EQUIPMENT INLET NODE,OUTDOORAIR:MIXER,VAV_TOP WITH REHEAT_OAMIXING BOX,Inlet,1
 Non-Parent Node Connection,DATACENTER BASEMENT MIXED AIR OUTLET,OUTDOORAIR:MIXER,DATACENTER BASEMENT OA MIXING BOX,Outlet,1
 Non-Parent Node Connection,DATACENTER BASEMENT OUTSIDE AIR INLET,OUTDOORAIR:MIXER,DATACENTER BASEMENT OA MIXING BOX,Inlet,1
 Non-Parent Node Connection,DATACENTER BASEMENT RELIEF AIR OUTLET,OUTDOORAIR:MIXER,DATACENTER BASEMENT OA MIXING BOX,ReliefAir,1
 Non-Parent Node Connection,AIRLOOP DATACENTER BASEMENT RETURN AIR INLET,OUTDOORAIR:MIXER,DATACENTER BASEMENT OA MIXING BOX,Inlet,1
 Non-Parent Node Connection,DATACENTER BOT MIXED AIR OUTLET,OUTDOORAIR:MIXER,DATACENTER BOT OA MIXING BOX,Outlet,1
 Non-Parent Node Connection,DATACENTER BOT OUTSIDE AIR INLET,OUTDOORAIR:MIXER,DATACENTER BOT OA MIXING BOX,Inlet,1
 Non-Parent Node Connection,DATACENTER BOT RELIEF AIR OUTLET,OUTDOORAIR:MIXER,DATACENTER BOT OA MIXING BOX,ReliefAir,1
 Non-Parent Node Connection,AIRLOOP DATACENTER BOT RETURN AIR INLET,OUTDOORAIR:MIXER,DATACENTER BOT OA MIXING BOX,Inlet,1
 Non-Parent Node Connection,DATACENTER MID MIXED AIR OUTLET,OUTDOORAIR:MIXER,DATACENTER MID OA MIXING BOX,Outlet,1
 Non-Parent Node Connection,DATACENTER MID OUTSIDE AIR INLET,OUTDOORAIR:MIXER,DATACENTER MID OA MIXING BOX,Inlet,1
 Non-Parent Node Connection,DATACENTER MID RELIEF AIR OUTLET,OUTDOORAIR:MIXER,DATACENTER MID OA MIXING BOX,ReliefAir,1
 Non-Parent Node Connection,AIRLOOP DATACENTER MID RETURN AIR INLET,OUTDOORAIR:MIXER,DATACENTER MID OA MIXING BOX,Inlet,1
 Non-Parent Node Connection,DATACENTER TOP MIXED AIR OUTLET,OUTDOORAIR:MIXER,DATACENTER TOP OA MIXING BOX,Outlet,1
 Non-Parent Node Connection,DATACENTER TOP OUTSIDE AIR INLET,OUTDOORAIR:MIXER,DATACENTER TOP OA MIXING BOX,Inlet,1
 Non-Parent Node Connection,DATACENTER TOP RELIEF AIR OUTLET,OUTDOORAIR:MIXER,DATACENTER TOP OA MIXING BOX,ReliefAir,1
 Non-Parent Node Connection,AIRLOOP DATACENTER TOP RETURN AIR INLET,OUTDOORAIR:MIXER,DATACENTER TOP OA MIXING BOX,Inlet,1
 Non-Parent Node Connection,CAV_BAS_HEATC-CAV_FANNODE,FAN:CONSTANTVOLUME,CAV_BAS FAN,Inlet,1
 Non-Parent Node Connection,CAV_BAS SUPPLY EQUIPMENT OUTLET NODE,FAN:CONSTANTVOLUME,CAV_BAS FAN,Outlet,1
 Non-Parent Node Connection,VAV_BOT WITH REHEAT_HEATC-VAV WITH REHEAT FANNODE,FAN:VARIABLEVOLUME,VAV_BOT WITH REHEAT FAN,Inlet,1
 Non-Parent Node Connection,VAV_BOT WITH REHEAT SUPPLY EQUIPMENT OUTLET NODE,FAN:VARIABLEVOLUME,VAV_BOT WITH REHEAT FAN,Outlet,1
 Non-Parent Node Connection,VAV_MID WITH REHEAT_HEATC-VAV WITH REHEAT FANNODE,FAN:VARIABLEVOLUME,VAV_MID WITH REHEAT FAN,Inlet,1
 Non-Parent Node Connection,VAV_MID WITH REHEAT SUPPLY EQUIPMENT OUTLET NODE,FAN:VARIABLEVOLUME,VAV_MID WITH REHEAT FAN,Outlet,1
 Non-Parent Node Connection,VAV_TOP WITH REHEAT_HEATC-VAV WITH REHEAT FANNODE,FAN:VARIABLEVOLUME,VAV_TOP WITH REHEAT FAN,Inlet,1
 Non-Parent Node Connection,VAV_TOP WITH REHEAT SUPPLY EQUIPMENT OUTLET NODE,FAN:VARIABLEVOLUME,VAV_TOP WITH REHEAT FAN,Outlet,1
 Non-Parent Node Connection,DATACENTER BASEMENT MIXED AIR OUTLET,FAN:ONOFF,DATACENTER BASEMENT SUPPLY FAN,Inlet,1
 Non-Parent Node Connection,AIRLOOP DATACENTER BASEMENT SUPPLY FAN OUTLET,FAN:ONOFF,DATACENTER BASEMENT SUPPLY FAN,Outlet,1
 Non-Parent Node Connection,DATACENTER BOT MIXED AIR OUTLET,FAN:ONOFF,DATACENTER BOT SUPPLY FAN,Inlet,1
 Non-Parent Node Connection,AIRLOOP DATACENTER BOT SUPPLY FAN OUTLET,FAN:ONOFF,DATACENTER BOT SUPPLY FAN,Outlet,1
 Non-Parent Node Connection,DATACENTER MID MIXED AIR OUTLET,FAN:ONOFF,DATACENTER MID SUPPLY FAN,Inlet,1
 Non-Parent Node Connection,AIRLOOP DATACENTER MID SUPPLY FAN OUTLET,FAN:ONOFF,DATACENTER MID SUPPLY FAN,Outlet,1
 Non-Parent Node Connection,DATACENTER TOP MIXED AIR OUTLET,FAN:ONOFF,DATACENTER TOP SUPPLY FAN,Inlet,1
 Non-Parent Node Connection,AIRLOOP DATACENTER TOP SUPPLY FAN OUTLET,FAN:ONOFF,DATACENTER TOP SUPPLY FAN,Outlet,1
 Non-Parent Node Connection,CAV_BAS_OA-CAV_COOLCNODE,CONTROLLER:OUTDOORAIR,CAV_BAS_OA_CONTROLLER,Sensor,1
 Non-Parent Node Connection,CAV_BAS_OAINLET NODE,CONTROLLER:OUTDOORAIR,CAV_BAS_OA_CONTROLLER,Actuator,1
 Non-Parent Node Connection,CAV_BAS_OARELIEF NODE,CONTROLLER:OUTDOORAIR,CAV_BAS_OA_CONTROLLER,Actuator,1
 Non-Parent Node Connection,CAV_BAS SUPPLY EQUIPMENT INLET NODE,CONTROLLER:OUTDOORAIR,CAV_BAS_OA_CONTROLLER,Sensor,1
 Non-Parent Node Connection,VAV_BOT WITH REHEAT_OA-VAV WITH REHEAT_COOLCNODE,CONTROLLER:OUTDOORAIR,VAV_BOT WITH REHEAT_OA_CONTROLLER,Sensor,1
 Non-Parent Node Connection,VAV_BOT WITH REHEAT_OAINLET NODE,CONTROLLER:OUTDOORAIR,VAV_BOT WITH REHEAT_OA_CONTROLLER,Actuator,1
 Non-Parent Node Connection,VAV_BOT WITH REHEAT_OARELIEF NODE,CONTROLLER:OUTDOORAIR,VAV_BOT WITH REHEAT_OA_CONTROLLER,Actuator,1
 Non-Parent Node Connection,VAV_BOT WITH REHEAT SUPPLY EQUIPMENT INLET NODE,CONTROLLER:OUTDOORAIR,VAV_BOT WITH REHEAT_OA_CONTROLLER,Sensor,1
 Non-Parent Node Connection,VAV_MID WITH REHEAT_OA-VAV WITH REHEAT_COOLCNODE,CONTROLLER:OUTDOORAIR,VAV_MID WITH REHEAT_OA_CONTROLLER,Sensor,1
 Non-Parent Node Connection,VAV_MID WITH REHEAT_OAINLET NODE,CONTROLLER:OUTDOORAIR,VAV_MID WITH REHEAT_OA_CONTROLLER,Actuator,1
 Non-Parent Node Connection,VAV_MID WITH REHEAT_OARELIEF NODE,CONTROLLER:OUTDOORAIR,VAV_MID WITH REHEAT_OA_CONTROLLER,Actuator,1
 Non-Parent Node Connection,VAV_MID WITH REHEAT SUPPLY EQUIPMENT INLET NODE,CONTROLLER:OUTDOORAIR,VAV_MID WITH REHEAT_OA_CONTROLLER,Sensor,1
 Non-Parent Node Connection,VAV_TOP WITH REHEAT_OA-VAV WITH REHEAT_COOLCNODE,CONTROLLER:OUTDOORAIR,VAV_TOP WITH REHEAT_OA_CONTROLLER,Sensor,1
 Non-Parent Node Connection,VAV_TOP WITH REHEAT_OAINLET NODE,CONTROLLER:OUTDOORAIR,VAV_TOP WITH REHEAT_OA_CONTROLLER,Actuator,1
 Non-Parent Node Connection,VAV_TOP WITH REHEAT_OARELIEF NODE,CONTROLLER:OUTDOORAIR,VAV_TOP WITH REHEAT_OA_CONTROLLER,Actuator,1
 Non-Parent Node Connection,VAV_TOP WITH REHEAT SUPPLY EQUIPMENT INLET NODE,CONTROLLER:OUTDOORAIR,VAV_TOP WITH REHEAT_OA_CONTROLLER,Sensor,1
 Non-Parent Node Connection,DATACENTER BASEMENT MIXED AIR OUTLET,CONTROLLER:OUTDOORAIR,AIRLOOP DATACENTER BASEMENT OA CONTROLLER,Sensor,1
 Non-Parent Node Connection,DATACENTER BASEMENT OUTSIDE AIR INLET,CONTROLLER:OUTDOORAIR,AIRLOOP DATACENTER BASEMENT OA CONTROLLER,Actuator,1
 Non-Parent Node Connection,DATACENTER BASEMENT RELIEF AIR OUTLET,CONTROLLER:OUTDOORAIR,AIRLOOP DATACENTER BASEMENT OA CONTROLLER,Actuator,1
 Non-Parent Node Connection,AIRLOOP DATACENTER BASEMENT RETURN AIR INLET,CONTROLLER:OUTDOORAIR,AIRLOOP DATACENTER BASEMENT OA CONTROLLER,Sensor,1
 Non-Parent Node Connection,DATACENTER BOT MIXED AIR OUTLET,CONTROLLER:OUTDOORAIR,AIRLOOP DATACENTER BOT OA CONTROLLER,Sensor,1
 Non-Parent Node Connection,DATACENTER BOT OUTSIDE AIR INLET,CONTROLLER:OUTDOORAIR,AIRLOOP DATACENTER BOT OA CONTROLLER,Actuator,1
 Non-Parent Node Connection,DATACENTER BOT RELIEF AIR OUTLET,CONTROLLER:OUTDOORAIR,AIRLOOP DATACENTER BOT OA CONTROLLER,Actuator,1
 Non-Parent Node Connection,AIRLOOP DATACENTER BOT RETURN AIR INLET,CONTROLLER:OUTDOORAIR,AIRLOOP DATACENTER BOT OA CONTROLLER,Sensor,1
 Non-Parent Node Connection,DATACENTER MID MIXED AIR OUTLET,CONTROLLER:OUTDOORAIR,AIRLOOP DATACENTER MID OA CONTROLLER,Sensor,1
 Non-Parent Node Connection,DATACENTER MID OUTSIDE AIR INLET,CONTROLLER:OUTDOORAIR,AIRLOOP DATACENTER MID OA CONTROLLER,Actuator,1
 Non-Parent Node Connection,DATACENTER MID RELIEF AIR OUTLET,CONTROLLER:OUTDOORAIR,AIRLOOP DATACENTER MID OA CONTROLLER,Actuator,1
 Non-Parent Node Connection,AIRLOOP DATACENTER MID RETURN AIR INLET,CONTROLLER:OUTDOORAIR,AIRLOOP DATACENTER MID OA CONTROLLER,Sensor,1
 Non-Parent Node Connection,DATACENTER TOP MIXED AIR OUTLET,CONTROLLER:OUTDOORAIR,AIRLOOP DATACENTER TOP OA CONTROLLER,Sensor,1
 Non-Parent Node Connection,DATACENTER TOP OUTSIDE AIR INLET,CONTROLLER:OUTDOORAIR,AIRLOOP DATACENTER TOP OA CONTROLLER,Actuator,1
 Non-Parent Node Connection,DATACENTER TOP RELIEF AIR OUTLET,CONTROLLER:OUTDOORAIR,AIRLOOP DATACENTER TOP OA CONTROLLER,Actuator,1
 Non-Parent Node Connection,AIRLOOP DATACENTER TOP RETURN AIR INLET,CONTROLLER:OUTDOORAIR,AIRLOOP DATACENTER TOP OA CONTROLLER,Sensor,1
 Non-Parent Node Connection,AIRLOOP DATACENTER BASEMENT WATER TO AIR HEAT PUMP SOURCE SIDE1 INLET NODE,COIL:COOLING:WATERTOAIRHEATPUMP:EQUATIONFIT,HEAT PUMP COOLING MODE AIRLOOP DATACENTER BASEMENT,Inlet,2
 Non-Parent Node Connection,AIRLOOP DATACENTER BASEMENT WATER TO AIR HEAT PUMP SOURCE SIDE1 OUTLET NODE,COIL:COOLING:WATERTOAIRHEATPUMP:EQUATIONFIT,HEAT PUMP COOLING MODE AIRLOOP DATACENTER BASEMENT,Outlet,2
 Non-Parent Node Connection,AIRLOOP DATACENTER BASEMENT SUPPLY FAN OUTLET,COIL:COOLING:WATERTOAIRHEATPUMP:EQUATIONFIT,HEAT PUMP COOLING MODE AIRLOOP DATACENTER BASEMENT,Inlet,1
 Non-Parent Node Connection,COOLING COIL AIR OUTLET NODE AIRLOOP DATACENTER BASEMENT,COIL:COOLING:WATERTOAIRHEATPUMP:EQUATIONFIT,HEAT PUMP COOLING MODE AIRLOOP DATACENTER BASEMENT,Outlet,1
 Non-Parent Node Connection,AIRLOOP DATACENTER BOT WATER TO AIR HEAT PUMP SOURCE SIDE1 INLET NODE,COIL:COOLING:WATERTOAIRHEATPUMP:EQUATIONFIT,HEAT PUMP COOLING MODE AIRLOOP DATACENTER BOT,Inlet,2
 Non-Parent Node Connection,AIRLOOP DATACENTER BOT WATER TO AIR HEAT PUMP SOURCE SIDE1 OUTLET NODE,COIL:COOLING:WATERTOAIRHEATPUMP:EQUATIONFIT,HEAT PUMP COOLING MODE AIRLOOP DATACENTER BOT,Outlet,2
 Non-Parent Node Connection,AIRLOOP DATACENTER BOT SUPPLY FAN OUTLET,COIL:COOLING:WATERTOAIRHEATPUMP:EQUATIONFIT,HEAT PUMP COOLING MODE AIRLOOP DATACENTER BOT,Inlet,1
 Non-Parent Node Connection,COOLING COIL AIR OUTLET NODE AIRLOOP DATACENTER BOT,COIL:COOLING:WATERTOAIRHEATPUMP:EQUATIONFIT,HEAT PUMP COOLING MODE AIRLOOP DATACENTER BOT,Outlet,1
 Non-Parent Node Connection,AIRLOOP DATACENTER MID WATER TO AIR HEAT PUMP SOURCE SIDE1 INLET NODE,COIL:COOLING:WATERTOAIRHEATPUMP:EQUATIONFIT,HEAT PUMP COOLING MODE AIRLOOP DATACENTER MID,Inlet,2
 Non-Parent Node Connection,AIRLOOP DATACENTER MID WATER TO AIR HEAT PUMP SOURCE SIDE1 OUTLET NODE,COIL:COOLING:WATERTOAIRHEATPUMP:EQUATIONFIT,HEAT PUMP COOLING MODE AIRLOOP DATACENTER MID,Outlet,2
 Non-Parent Node Connection,AIRLOOP DATACENTER MID SUPPLY FAN OUTLET,COIL:COOLING:WATERTOAIRHEATPUMP:EQUATIONFIT,HEAT PUMP COOLING MODE AIRLOOP DATACENTER MID,Inlet,1
 Non-Parent Node Connection,COOLING COIL AIR OUTLET NODE AIRLOOP DATACENTER MID,COIL:COOLING:WATERTOAIRHEATPUMP:EQUATIONFIT,HEAT PUMP COOLING MODE AIRLOOP DATACENTER MID,Outlet,1
 Non-Parent Node Connection,AIRLOOP DATACENTER TOP WATER TO AIR HEAT PUMP SOURCE SIDE1 INLET NODE,COIL:COOLING:WATERTOAIRHEATPUMP:EQUATIONFIT,HEAT PUMP COOLING MODE AIRLOOP DATACENTER TOP,Inlet,2
 Non-Parent Node Connection,AIRLOOP DATACENTER TOP WATER TO AIR HEAT PUMP SOURCE SIDE1 OUTLET NODE,COIL:COOLING:WATERTOAIRHEATPUMP:EQUATIONFIT,HEAT PUMP COOLING MODE AIRLOOP DATACENTER TOP,Outlet,2
 Non-Parent Node Connection,AIRLOOP DATACENTER TOP SUPPLY FAN OUTLET,COIL:COOLING:WATERTOAIRHEATPUMP:EQUATIONFIT,HEAT PUMP COOLING MODE AIRLOOP DATACENTER TOP,Inlet,1
 Non-Parent Node Connection,COOLING COIL AIR OUTLET NODE AIRLOOP DATACENTER TOP,COIL:COOLING:WATERTOAIRHEATPUMP:EQUATIONFIT,HEAT PUMP COOLING MODE AIRLOOP DATACENTER TOP,Outlet,1
 Non-Parent Node Connection,AIRLOOP DATACENTER BASEMENT WATER TO AIR HEAT PUMP SOURCE SIDE2 INLET NODE,COIL:HEATING:WATERTOAIRHEATPUMP:EQUATIONFIT,HEAT PUMP HEATING MODE AIRLOOP DATACENTER BASEMENT,Inlet,2
 Non-Parent Node Connection,AIRLOOP DATACENTER BASEMENT WATER TO AIR HEAT PUMP SOURCE SIDE2 OUTLET NODE,COIL:HEATING:WATERTOAIRHEATPUMP:EQUATIONFIT,HEAT PUMP HEATING MODE AIRLOOP DATACENTER BASEMENT,Outlet,2
 Non-Parent Node Connection,COOLING COIL AIR OUTLET NODE AIRLOOP DATACENTER BASEMENT,COIL:HEATING:WATERTOAIRHEATPUMP:EQUATIONFIT,HEAT PUMP HEATING MODE AIRLOOP DATACENTER BASEMENT,Inlet,1
 Non-Parent Node Connection,HEATING COIL AIR OUTLET NODE AIRLOOP DATACENTER BASEMENT,COIL:HEATING:WATERTOAIRHEATPUMP:EQUATIONFIT,HEAT PUMP HEATING MODE AIRLOOP DATACENTER BASEMENT,Outlet,1
 Non-Parent Node Connection,AIRLOOP DATACENTER BOT WATER TO AIR HEAT PUMP SOURCE SIDE2 INLET NODE,COIL:HEATING:WATERTOAIRHEATPUMP:EQUATIONFIT,HEAT PUMP HEATING MODE AIRLOOP DATACENTER BOT,Inlet,2
 Non-Parent Node Connection,AIRLOOP DATACENTER BOT WATER TO AIR HEAT PUMP SOURCE SIDE2 OUTLET NODE,COIL:HEATING:WATERTOAIRHEATPUMP:EQUATIONFIT,HEAT PUMP HEATING MODE AIRLOOP DATACENTER BOT,Outlet,2
 Non-Parent Node Connection,COOLING COIL AIR OUTLET NODE AIRLOOP DATACENTER BOT,COIL:HEATING:WATERTOAIRHEATPUMP:EQUATIONFIT,HEAT PUMP HEATING MODE AIRLOOP DATACENTER BOT,Inlet,1
 Non-Parent Node Connection,HEATING COIL AIR OUTLET NODE AIRLOOP DATACENTER BOT,COIL:HEATING:WATERTOAIRHEATPUMP:EQUATIONFIT,HEAT PUMP HEATING MODE AIRLOOP DATACENTER BOT,Outlet,1
 Non-Parent Node Connection,AIRLOOP DATACENTER MID WATER TO AIR HEAT PUMP SOURCE SIDE2 INLET NODE,COIL:HEATING:WATERTOAIRHEATPUMP:EQUATIONFIT,HEAT PUMP HEATING MODE AIRLOOP DATACENTER MID,Inlet,2
 Non-Parent Node Connection,AIRLOOP DATACENTER MID WATER TO AIR HEAT PUMP SOURCE SIDE2 OUTLET NODE,COIL:HEATING:WATERTOAIRHEATPUMP:EQUATIONFIT,HEAT PUMP HEATING MODE AIRLOOP DATACENTER MID,Outlet,2
 Non-Parent Node Connection,COOLING COIL AIR OUTLET NODE AIRLOOP DATACENTER MID,COIL:HEATING:WATERTOAIRHEATPUMP:EQUATIONFIT,HEAT PUMP HEATING MODE AIRLOOP DATACENTER MID,Inlet,1
 Non-Parent Node Connection,HEATING COIL AIR OUTLET NODE AIRLOOP DATACENTER MID,COIL:HEATING:WATERTOAIRHEATPUMP:EQUATIONFIT,HEAT PUMP HEATING MODE AIRLOOP DATACENTER MID,Outlet,1
 Non-Parent Node Connection,AIRLOOP DATACENTER TOP WATER TO AIR HEAT PUMP SOURCE SIDE2 INLET NODE,COIL:HEATING:WATERTOAIRHEATPUMP:EQUATIONFIT,HEAT PUMP HEATING MODE AIRLOOP DATACENTER TOP,Inlet,2
 Non-Parent Node Connection,AIRLOOP DATACENTER TOP WATER TO AIR HEAT PUMP SOURCE SIDE2 OUTLET NODE,COIL:HEATING:WATERTOAIRHEATPUMP:EQUATIONFIT,HEAT PUMP HEATING MODE AIRLOOP DATACENTER TOP,Outlet,2
 Non-Parent Node Connection,COOLING COIL AIR OUTLET NODE AIRLOOP DATACENTER TOP,COIL:HEATING:WATERTOAIRHEATPUMP:EQUATIONFIT,HEAT PUMP HEATING MODE AIRLOOP DATACENTER TOP,Inlet,1
 Non-Parent Node Connection,HEATING COIL AIR OUTLET NODE AIRLOOP DATACENTER TOP,COIL:HEATING:WATERTOAIRHEATPUMP:EQUATIONFIT,HEAT PUMP HEATING MODE AIRLOOP DATACENTER TOP,Outlet,1
 Non-Parent Node Connection,DATACENTER_HUMIDIFIER-DATACENTER_EXTRAELECHEATCNODE,COIL:HEATING:ELECTRIC,DATACENTER_EXTRAELECHEATC,Inlet,1
 Non-Parent Node Connection,DATACENTER_EXTRAELECHEATC-DATACENTER_EXTRAWATERHEATCNODE,COIL:HEATING:ELECTRIC,DATACENTER_EXTRAELECHEATC,Outlet,1
 Non-Parent Node Connection,DATACENTER_EXTRAELECHEATC-DATACENTER_EXTRAWATERHEATCNODE,COIL:HEATING:ELECTRIC,DATACENTER_EXTRAELECHEATC,Sensor,1
 Non-Parent Node Connection,HEATING COIL AIR OUTLET NODE AIRLOOP DATACENTER BASEMENT,COIL:HEATING:ELECTRIC,HEAT PUMP DX SUPP HEATING COIL AIRLOOP DATACENTER BASEMENT,Inlet,1
 Non-Parent Node Connection,AIRLOOP DATACENTER BASEMENT HUMIDIFIER INLET,COIL:HEATING:ELECTRIC,HEAT PUMP DX SUPP HEATING COIL AIRLOOP DATACENTER BASEMENT,Outlet,1
 Non-Parent Node Connection,HEATING COIL AIR OUTLET NODE AIRLOOP DATACENTER BOT,COIL:HEATING:ELECTRIC,HEAT PUMP DX SUPP HEATING COIL AIRLOOP DATACENTER BOT,Inlet,1
 Non-Parent Node Connection,AIRLOOP DATACENTER BOT SUPPLY AIR OUTLET,COIL:HEATING:ELECTRIC,HEAT PUMP DX SUPP HEATING COIL AIRLOOP DATACENTER BOT,Outlet,1
 Non-Parent Node Connection,HEATING COIL AIR OUTLET NODE AIRLOOP DATACENTER MID,COIL:HEATING:ELECTRIC,HEAT PUMP DX SUPP HEATING COIL AIRLOOP DATACENTER MID,Inlet,1
 Non-Parent Node Connection,AIRLOOP DATACENTER MID SUPPLY AIR OUTLET,COIL:HEATING:ELECTRIC,HEAT PUMP DX SUPP HEATING COIL AIRLOOP DATACENTER MID,Outlet,1
 Non-Parent Node Connection,HEATING COIL AIR OUTLET NODE AIRLOOP DATACENTER TOP,COIL:HEATING:ELECTRIC,HEAT PUMP DX SUPP HEATING COIL AIRLOOP DATACENTER TOP,Inlet,1
 Non-Parent Node Connection,AIRLOOP DATACENTER TOP SUPPLY AIR OUTLET,COIL:HEATING:ELECTRIC,HEAT PUMP DX SUPP HEATING COIL AIRLOOP DATACENTER TOP,Outlet,1
 Non-Parent Node Connection,COMMON OSA INLET NODE,AIRLOOPHVAC:UNITARYHEATPUMP:WATERTOAIR,AIRLOOP DATACENTER BASEMENT DXAC HEAT PUMP,OutsideAirReference,1
 Non-Parent Node Connection,COMMON OSA INLET NODE,AIRLOOPHVAC:UNITARYHEATPUMP:WATERTOAIR,AIRLOOP DATACENTER BOT DXAC HEAT PUMP,OutsideAirReference,1
 Non-Parent Node Connection,COMMON OSA INLET NODE,AIRLOOPHVAC:UNITARYHEATPUMP:WATERTOAIR,AIRLOOP DATACENTER MID DXAC HEAT PUMP,OutsideAirReference,1
 Non-Parent Node Connection,COMMON OSA INLET NODE,AIRLOOPHVAC:UNITARYHEATPUMP:WATERTOAIR,AIRLOOP DATACENTER TOP DXAC HEAT PUMP,OutsideAirReference,1
 Non-Parent Node Connection,AIRLOOP DATACENTER BASEMENT HUMIDIFIER INLET,HUMIDIFIER:STEAM:ELECTRIC,DATACENTER BASEMENT HUMIDIFIER,Inlet,1
 Non-Parent Node Connection,DATACENTER_HUMIDIFIER-DATACENTER_EXTRAELECHEATCNODE,HUMIDIFIER:STEAM:ELECTRIC,DATACENTER BASEMENT HUMIDIFIER,Outlet,1
 Non-Parent Node Connection,HEATSYS1 SUPPLY INLET NODE,PUMP:VARIABLESPEED,HEATSYS1 PUMP,Inlet,1
 Non-Parent Node Connection,HEATSYS1 PUMP-HEATSYS1 BOILERNODEVIACONNECTOR,PUMP:VARIABLESPEED,HEATSYS1 PUMP,Outlet,1
 Non-Parent Node Connection,COOLSYS1 DEMAND INLET NODE,PUMP:VARIABLESPEED,COOLSYS1 PUMP SECONDARY,Inlet,1
 Non-Parent Node Connection,COOLSYS1 PUMP SECONDARY-COOLSYS1 DEMAND MIXER,PUMP:VARIABLESPEED,COOLSYS1 PUMP SECONDARY,Outlet,1
 Non-Parent Node Connection,SHWSYS1 SUPPLY INLET NODE,PUMP:CONSTANTSPEED,SHWSYS1 PUMP,Inlet,1
 Non-Parent Node Connection,SHWSYS1 PUMP-SHWSYS1 WATER HEATERNODEVIACONNECTOR,PUMP:CONSTANTSPEED,SHWSYS1 PUMP,Outlet,1
 Non-Parent Node Connection,COOLSYS1 CHILLER1 PUMP INLET NODE,PUMP:CONSTANTSPEED,COOLSYS1 CHILLER1 PUMP,Inlet,1
 Non-Parent Node Connection,COOLSYS1 PUMP-COOLSYS1 CHILLER1NODE,PUMP:CONSTANTSPEED,COOLSYS1 CHILLER1 PUMP,Outlet,1
 Non-Parent Node Connection,COOLSYS1 CHILLER2 PUMP INLET NODE,PUMP:CONSTANTSPEED,COOLSYS1 CHILLER2 PUMP,Inlet,1
 Non-Parent Node Connection,COOLSYS1 PUMP-COOLSYS1 CHILLER2NODE,PUMP:CONSTANTSPEED,COOLSYS1 CHILLER2 PUMP,Outlet,1
 Non-Parent Node Connection,PLANT SUPPLY INLET NODE,PUMP:CONSTANTSPEED,PLANT CIRC PUMP,Inlet,1
 Non-Parent Node Connection,PLANT PUMP OUTLET NODE,PUMP:CONSTANTSPEED,PLANT CIRC PUMP,Outlet,1
 Non-Parent Node Connection,TOWERWATERSYS SUPPLY INLET NODE,HEADEREDPUMPS:VARIABLESPEED,TOWERWATERSYS PUMP,Inlet,1
 Non-Parent Node Connection,TOWERWATERSYS PUMP-TOWERWATERSYS COOLTOWERNODEVIACONNECTOR,HEADEREDPUMPS:VARIABLESPEED,TOWERWATERSYS PUMP,Outlet,1
 Non-Parent Node Connection,CENTRAL TOWER INLET NODE,PLANTEQUIPMENTOPERATION:COMPONENTSETPOINT,WSHPPLANT OPERATION SCHEME,Sensor,1
 Non-Parent Node Connection,PLANT SUPPLY OUTLET NODE,PLANTEQUIPMENTOPERATION:COMPONENTSETPOINT,WSHPPLANT OPERATION SCHEME,Sensor,1
 Non-Parent Node Connection,DUMMY BOILER INLET NODE,PLANTEQUIPMENTOPERATION:COMPONENTSETPOINT,WSHPPLANT OPERATION SCHEME,Sensor,1
